<?xml version="1.0" encoding="UTF-8"?>

<!-- generated on 2026-03-13T12:25:17.629337+09:00 by Eclipse SUMO netconvert 1.26.0
<netconvertConfiguration xmlns:xsi="http://www.w3.org/2001/XMLSchema-instance" xsi:noNamespaceSchemaLocation="http://sumo.dlr.de/xsd/netconvertConfiguration.xsd">

    <input>
        <sumo-net-file value="kawasaki_filtered.net.xml"/>
    </input>

    <output>
        <opendrive-output value="kawasaki_filtered_righthand.xodr"/>
    </output>

    <processing>
        <geometry.min-radius.fix.railways value="false"/>
        <geometry.avoid-overlap value="false"/>
        <geometry.max-grade.fix value="false"/>
        <offset.disable-normalization value="true"/>
        <lefthand value="0"/>
    </processing>

    <junctions>
        <no-turnarounds value="true"/>
        <junctions.corner-detail value="5"/>
        <junctions.limit-turn-speed value="5.50"/>
    </junctions>

    <pedestrian>
        <walkingareas value="0"/>
    </pedestrian>

</netconvertConfiguration>
-->

<OpenDRIVE>
    <header revMajor="1" revMinor="4" name="" version="1.00" date="Fri Mar 13 12:25:17 2026" north="1148.27" south="0.00" east="1314.11" west="0.00">
        <geoReference>
 <![CDATA[
 +proj=utm +zone=54 +ellps=WGS84 +datum=WGS84 +units=m +no_defs
]]>
        </geoReference>
        <offset x="378166.96" y="3933717.33" z="-0.00" hdg="0"/>
    </header>
    <road name="" length="0.20000000" id="930" junction="-1">
        <link>
            <predecessor elementType="junction" elementId="1"/>
            <successor elementType="junction" elementId="2"/>
        </link>
        <type s="0" type="town"/>
        <planView>
            <geometry s="0.00000000" x="469.40943098" y="912.05565043" hdg="1.77503524" length="0.20000000">
                <line/>
            </geometry>
        </planView>
        <elevationProfile>
            <elevation s="0" a="0.00" b="0" c="0" d="0"/>
        </elevationProfile>
        <lateralProfile/>
        <lanes>
            <laneSection s="0">
                <center>
                    <lane id="0" type="none" level="true">
                        <link/>
                        <roadMark sOffset="0" type="solid" weight="standard" color="standard" width="0.13"/>
                    </lane>
                </center>
                <right>
                    <lane id="-1" type="driving" level="true">
                        <link/>
                        <width sOffset="0" a="3.20" b="0" c="0" d="0"/>
                        <roadMark sOffset="0" type="solid" weight="standard" color="standard" width="0.13"/>
                        <speed sOffset="0" max="13.89"/>
                    </lane>
                 </right>
            </laneSection>
        </lanes>
        <objects/>
        <signals/>
    </road>
    <road name="" length="43.76638296" id="931" junction="-1">
        <link>
            <predecessor elementType="junction" elementId="3"/>
            <successor elementType="junction" elementId="1"/>
        </link>
        <type s="0" type="town"/>
        <planView>
            <geometry s="0.00000000" x="477.77956864" y="871.65688067" hdg="1.77509017" length="43.76638296">
                <line/>
            </geometry>
        </planView>
        <elevationProfile>
            <elevation s="0" a="0.00" b="0" c="0" d="0"/>
        </elevationProfile>
        <lateralProfile/>
        <lanes>
            <laneSection s="0">
                <center>
                    <lane id="0" type="none" level="true">
                        <link/>
                        <roadMark sOffset="0" type="solid" weight="standard" color="standard" width="0.13"/>
                    </lane>
                </center>
                <right>
                    <lane id="-1" type="driving" level="true">
                        <link/>
                        <width sOffset="0" a="3.20" b="0" c="0" d="0"/>
                        <roadMark sOffset="0" type="solid" weight="standard" color="standard" width="0.13"/>
                        <speed sOffset="0" max="13.89"/>
                    </lane>
                 </right>
            </laneSection>
        </lanes>
        <objects/>
        <signals/>
    </road>
    <road name="" length="11.50448807" id="932" junction="-1">
        <link>
            <predecessor elementType="junction" elementId="4"/>
            <successor elementType="junction" elementId="5"/>
        </link>
        <type s="0" type="town"/>
        <planView>
            <geometry s="0.00000000" x="521.24963070" y="661.79689082" hdg="1.77467128" length="11.50448807">
                <line/>
            </geometry>
        </planView>
        <elevationProfile>
            <elevation s="0" a="0.00" b="0" c="0" d="0"/>
        </elevationProfile>
        <lateralProfile/>
        <lanes>
            <laneSection s="0">
                <center>
                    <lane id="0" type="none" level="true">
                        <link/>
                        <roadMark sOffset="0" type="solid" weight="standard" color="standard" width="0.13"/>
                    </lane>
                </center>
                <right>
                    <lane id="-1" type="driving" level="true">
                        <link/>
                        <width sOffset="0" a="3.20" b="0" c="0" d="0"/>
                        <roadMark sOffset="0" type="solid" weight="standard" color="standard" width="0.13"/>
                        <speed sOffset="0" max="13.89"/>
                    </lane>
                 </right>
            </laneSection>
        </lanes>
        <objects/>
        <signals/>
    </road>
    <road name="" length="25.63893758" id="933" junction="-1">
        <link>
            <predecessor elementType="junction" elementId="6"/>
            <successor elementType="junction" elementId="4"/>
        </link>
        <type s="0" type="town"/>
        <planView>
            <geometry s="0.00000000" x="526.50958530" y="636.39686945" hdg="1.77499656" length="25.63893758">
                <line/>
            </geometry>
        </planView>
        <elevationProfile>
            <elevation s="0" a="0.00" b="0" c="0" d="0"/>
        </elevationProfile>
        <lateralProfile/>
        <lanes>
            <laneSection s="0">
                <center>
                    <lane id="0" type="none" level="true">
                        <link/>
                        <roadMark sOffset="0" type="solid" weight="standard" color="standard" width="0.13"/>
                    </lane>
                </center>
                <right>
                    <lane id="-1" type="driving" level="true">
                        <link/>
                        <width sOffset="0" a="3.20" b="0" c="0" d="0"/>
                        <roadMark sOffset="0" type="solid" weight="standard" color="standard" width="0.13"/>
                        <speed sOffset="0" max="13.89"/>
                    </lane>
                 </right>
            </laneSection>
        </lanes>
        <objects/>
        <signals/>
    </road>
    <road name="" length="0.20000000" id="934" junction="-1">
        <link>
            <predecessor elementType="junction" elementId="7"/>
            <successor elementType="junction" elementId="6"/>
        </link>
        <type s="0" type="town"/>
        <planView>
            <geometry s="0.00000000" x="526.22541316" y="637.76332829" hdg="1.77575477" length="0.20000000">
                <line/>
            </geometry>
        </planView>
        <elevationProfile>
            <elevation s="0" a="0.00" b="0" c="0" d="0"/>
        </elevationProfile>
        <lateralProfile/>
        <lanes>
            <laneSection s="0">
                <center>
                    <lane id="0" type="none" level="true">
                        <link/>
                        <roadMark sOffset="0" type="solid" weight="standard" color="standard" width="0.13"/>
                    </lane>
                </center>
                <right>
                    <lane id="-1" type="driving" level="true">
                        <link/>
                        <width sOffset="0" a="3.20" b="0" c="0" d="0"/>
                        <roadMark sOffset="0" type="solid" weight="standard" color="standard" width="0.13"/>
                        <speed sOffset="0" max="13.89"/>
                    </lane>
                 </right>
            </laneSection>
        </lanes>
        <objects/>
        <signals/>
    </road>
    <road name="" length="35.58618207" id="935" junction="-1">
        <link>
            <predecessor elementType="junction" elementId="8"/>
            <successor elementType="junction" elementId="3"/>
        </link>
        <type s="0" type="town"/>
        <planView>
            <geometry s="0.00000000" x="485.05957064" y="836.51688019" hdg="1.77507778" length="35.58618207">
                <line/>
            </geometry>
        </planView>
        <elevationProfile>
            <elevation s="0" a="0.00" b="0" c="0" d="0"/>
        </elevationProfile>
        <lateralProfile/>
        <lanes>
            <laneSection s="0">
                <center>
                    <lane id="0" type="none" level="true">
                        <link/>
                        <roadMark sOffset="0" type="solid" weight="standard" color="standard" width="0.13"/>
                    </lane>
                </center>
                <right>
                    <lane id="-1" type="driving" level="true">
                        <link/>
                        <width sOffset="0" a="3.20" b="0" c="0" d="0"/>
                        <roadMark sOffset="0" type="solid" weight="standard" color="standard" width="0.13"/>
                        <speed sOffset="0" max="13.89"/>
                    </lane>
                 </right>
            </laneSection>
        </lanes>
        <objects/>
        <signals/>
    </road>
    <road name="" length="30.73411521" id="936" junction="-1">
        <link>
            <predecessor elementType="junction" elementId="9"/>
            <successor elementType="junction" elementId="8"/>
        </link>
        <type s="0" type="town"/>
        <planView>
            <geometry s="0.00000000" x="491.34959814" y="806.12688592" hdg="1.77489047" length="30.73411521">
                <line/>
            </geometry>
        </planView>
        <elevationProfile>
            <elevation s="0" a="0.00" b="0" c="0" d="0"/>
        </elevationProfile>
        <lateralProfile/>
        <lanes>
            <laneSection s="0">
                <center>
                    <lane id="0" type="none" level="true">
                        <link/>
                        <roadMark sOffset="0" type="solid" weight="standard" color="standard" width="0.13"/>
                    </lane>
                </center>
                <right>
                    <lane id="-1" type="driving" level="true">
                        <link/>
                        <width sOffset="0" a="3.20" b="0" c="0" d="0"/>
                        <roadMark sOffset="0" type="solid" weight="standard" color="standard" width="0.13"/>
                        <speed sOffset="0" max="13.89"/>
                    </lane>
                 </right>
            </laneSection>
        </lanes>
        <objects/>
        <signals/>
    </road>
    <road name="" length="32.18545851" id="937" junction="-1">
        <link>
            <predecessor elementType="junction" elementId="10"/>
            <successor elementType="junction" elementId="9"/>
        </link>
        <type s="0" type="town"/>
        <planView>
            <geometry s="0.00000000" x="497.93957336" y="774.31686971" hdg="1.77507417" length="32.18545851">
                <line/>
            </geometry>
        </planView>
        <elevationProfile>
            <elevation s="0" a="0.00" b="0" c="0" d="0"/>
        </elevationProfile>
        <lateralProfile/>
        <lanes>
            <laneSection s="0">
                <center>
                    <lane id="0" type="none" level="true">
                        <link/>
                        <roadMark sOffset="0" type="solid" weight="standard" color="standard" width="0.13"/>
                    </lane>
                </center>
                <right>
                    <lane id="-1" type="driving" level="true">
                        <link/>
                        <width sOffset="0" a="3.20" b="0" c="0" d="0"/>
                        <roadMark sOffset="0" type="solid" weight="standard" color="standard" width="0.13"/>
                        <speed sOffset="0" max="13.89"/>
                    </lane>
                 </right>
            </laneSection>
        </lanes>
        <objects/>
        <signals/>
    </road>
    <road name="" length="32.61911468" id="938" junction="-1">
        <link>
            <predecessor elementType="junction" elementId="11"/>
            <successor elementType="junction" elementId="10"/>
        </link>
        <type s="0" type="town"/>
        <planView>
            <geometry s="0.00000000" x="504.63948428" y="742.08679426" hdg="1.77575802" length="32.61911468">
                <line/>
            </geometry>
        </planView>
        <elevationProfile>
            <elevation s="0" a="0.00" b="0" c="0" d="0"/>
        </elevationProfile>
        <lateralProfile/>
        <lanes>
            <laneSection s="0">
                <center>
                    <lane id="0" type="none" level="true">
                        <link/>
                        <roadMark sOffset="0" type="solid" weight="standard" color="standard" width="0.13"/>
                    </lane>
                </center>
                <right>
                    <lane id="-1" type="driving" level="true">
                        <link/>
                        <width sOffset="0" a="3.20" b="0" c="0" d="0"/>
                        <roadMark sOffset="0" type="solid" weight="standard" color="standard" width="0.13"/>
                        <speed sOffset="0" max="13.89"/>
                    </lane>
                 </right>
            </laneSection>
        </lanes>
        <objects/>
        <signals/>
    </road>
    <road name="" length="29.16706805" id="939" junction="-1">
        <link>
            <predecessor elementType="junction" elementId="12"/>
            <successor elementType="junction" elementId="11"/>
        </link>
        <type s="0" type="town"/>
        <planView>
            <geometry s="0.00000000" x="510.58971878" y="713.22687664" hdg="1.77411528" length="29.16706805">
                <line/>
            </geometry>
        </planView>
        <elevationProfile>
            <elevation s="0" a="0.00" b="0" c="0" d="0"/>
        </elevationProfile>
        <lateralProfile/>
        <lanes>
            <laneSection s="0">
                <center>
                    <lane id="0" type="none" level="true">
                        <link/>
                        <roadMark sOffset="0" type="solid" weight="standard" color="standard" width="0.13"/>
                    </lane>
                </center>
                <right>
                    <lane id="-1" type="driving" level="true">
                        <link/>
                        <width sOffset="0" a="3.20" b="0" c="0" d="0"/>
                        <roadMark sOffset="0" type="solid" weight="standard" color="standard" width="0.13"/>
                        <speed sOffset="0" max="13.89"/>
                    </lane>
                 </right>
            </laneSection>
        </lanes>
        <objects/>
        <signals/>
    </road>
    <road name="" length="8.26856433" id="940" junction="-1">
        <link>
            <predecessor elementType="junction" elementId="13"/>
            <successor elementType="junction" elementId="12"/>
        </link>
        <type s="0" type="town"/>
        <planView>
            <geometry s="0.00000000" x="512.32953977" y="704.83687431" hdg="1.77528721" length="8.26856433">
                <line/>
            </geometry>
        </planView>
        <elevationProfile>
            <elevation s="0" a="0.00" b="0" c="0" d="0"/>
        </elevationProfile>
        <lateralProfile/>
        <lanes>
            <laneSection s="0">
                <center>
                    <lane id="0" type="none" level="true">
                        <link/>
                        <roadMark sOffset="0" type="solid" weight="standard" color="standard" width="0.13"/>
                    </lane>
                </center>
                <right>
                    <lane id="-1" type="driving" level="true">
                        <link/>
                        <width sOffset="0" a="3.20" b="0" c="0" d="0"/>
                        <roadMark sOffset="0" type="solid" weight="standard" color="standard" width="0.13"/>
                        <speed sOffset="0" max="13.89"/>
                    </lane>
                 </right>
            </laneSection>
        </lanes>
        <objects/>
        <signals/>
    </road>
    <road name="" length="18.45115325" id="941" junction="-1">
        <link>
            <predecessor elementType="junction" elementId="14"/>
            <successor elementType="junction" elementId="13"/>
        </link>
        <type s="0" type="town"/>
        <planView>
            <geometry s="0.00000000" x="516.13952206" y="686.47687008" hdg="1.77540858" length="18.45115325">
                <line/>
            </geometry>
        </planView>
        <elevationProfile>
            <elevation s="0" a="0.00" b="0" c="0" d="0"/>
        </elevationProfile>
        <lateralProfile/>
        <lanes>
            <laneSection s="0">
                <center>
                    <lane id="0" type="none" level="true">
                        <link/>
                        <roadMark sOffset="0" type="solid" weight="standard" color="standard" width="0.13"/>
                    </lane>
                </center>
                <right>
                    <lane id="-1" type="driving" level="true">
                        <link/>
                        <width sOffset="0" a="3.20" b="0" c="0" d="0"/>
                        <roadMark sOffset="0" type="solid" weight="standard" color="standard" width="0.13"/>
                        <speed sOffset="0" max="13.89"/>
                    </lane>
                 </right>
            </laneSection>
        </lanes>
        <objects/>
        <signals/>
    </road>
    <road name="" length="13.09899341" id="942" junction="-1">
        <link>
            <predecessor elementType="junction" elementId="5"/>
            <successor elementType="junction" elementId="14"/>
        </link>
        <type s="0" type="town"/>
        <planView>
            <geometry s="0.00000000" x="518.85955145" y="673.35686949" hdg="1.77521753" length="13.09899341">
                <line/>
            </geometry>
        </planView>
        <elevationProfile>
            <elevation s="0" a="0.00" b="0" c="0" d="0"/>
        </elevationProfile>
        <lateralProfile/>
        <lanes>
            <laneSection s="0">
                <center>
                    <lane id="0" type="none" level="true">
                        <link/>
                        <roadMark sOffset="0" type="solid" weight="standard" color="standard" width="0.13"/>
                    </lane>
                </center>
                <right>
                    <lane id="-1" type="driving" level="true">
                        <link/>
                        <width sOffset="0" a="3.20" b="0" c="0" d="0"/>
                        <roadMark sOffset="0" type="solid" weight="standard" color="standard" width="0.13"/>
                        <speed sOffset="0" max="13.89"/>
                    </lane>
                 </right>
            </laneSection>
        </lanes>
        <objects/>
        <signals/>
    </road>
    <road name="" length="1.49663131" id="943" junction="-1">
        <link>
            <predecessor elementType="junction" elementId="15"/>
            <successor elementType="junction" elementId="16"/>
        </link>
        <type s="0" type="town"/>
        <planView>
            <geometry s="0.00000000" x="413.49449492" y="627.04629674" hdg="1.89316340" length="1.49663131">
                <line/>
            </geometry>
        </planView>
        <elevationProfile>
            <elevation s="0" a="0.00" b="0" c="0" d="0"/>
        </elevationProfile>
        <lateralProfile/>
        <lanes>
            <laneSection s="0">
                <center>
                    <lane id="0" type="none" level="true">
                        <link/>
                        <roadMark sOffset="0" type="solid" weight="standard" color="standard" width="0.13"/>
                    </lane>
                </center>
                <right>
                    <lane id="-1" type="driving" level="true">
                        <link/>
                        <width sOffset="0" a="3.20" b="0" c="0" d="0"/>
                        <roadMark sOffset="0" type="solid" weight="standard" color="standard" width="0.13"/>
                        <speed sOffset="0" max="11.11"/>
                    </lane>
                 </right>
            </laneSection>
        </lanes>
        <objects/>
        <signals>
            <signal id="306218670_4" s="1.49663131" t="-1.60000000" orientation="+" dynamic="yes" zOffset="5" country="OpenDRIVE" type="1000011" subtype="20" height="0.78000000" width="0.26000000">
                <validity fromLane="-1" toLane="-1"/>
            </signal>
            <signal id="306218670_5" s="1.49663131" t="-1.60000000" orientation="+" dynamic="yes" zOffset="5" country="OpenDRIVE" type="1000011" subtype="30" height="0.78000000" width="0.26000000">
                <validity fromLane="-1" toLane="-1"/>
            </signal>
            <signal id="306218670_6" s="1.49663131" t="-1.60000000" orientation="+" dynamic="yes" zOffset="5" country="OpenDRIVE" type="1000011" subtype="10" height="0.78000000" width="0.26000000">
                <validity fromLane="-1" toLane="-1"/>
            </signal>
            <signal id="306218670_7" s="1.49663131" t="-1.60000000" orientation="+" dynamic="yes" zOffset="5" country="OpenDRIVE" type="1000001" subtype="-1" height="0.78000000" width="0.26000000">
                <validity fromLane="-1" toLane="-1"/>
            </signal>
        </signals>
    </road>
    <road name="" length="34.39089550" id="944" junction="-1">
        <link>
            <predecessor elementType="junction" elementId="17"/>
            <successor elementType="junction" elementId="15"/>
        </link>
        <type s="0" type="town"/>
        <planView>
            <geometry s="0.00000000" x="423.17821219" y="593.81347580" hdg="1.85420951" length="34.39089550">
                <line/>
            </geometry>
        </planView>
        <elevationProfile>
            <elevation s="0" a="0.00" b="0" c="0" d="0"/>
        </elevationProfile>
        <lateralProfile/>
        <lanes>
            <laneSection s="0">
                <center>
                    <lane id="0" type="none" level="true">
                        <link/>
                        <roadMark sOffset="0" type="solid" weight="standard" color="standard" width="0.13"/>
                    </lane>
                </center>
                <right>
                    <lane id="-1" type="driving" level="true">
                        <link/>
                        <width sOffset="0" a="3.20" b="0" c="0" d="0"/>
                        <roadMark sOffset="0" type="solid" weight="standard" color="standard" width="0.13"/>
                        <speed sOffset="0" max="11.11"/>
                    </lane>
                 </right>
            </laneSection>
        </lanes>
        <objects/>
        <signals/>
    </road>
    <road name="" length="72.65693938" id="945" junction="-1">
        <link>
            <predecessor elementType="junction" elementId="18"/>
            <successor elementType="junction" elementId="19"/>
        </link>
        <type s="0" type="town"/>
        <planView>
            <geometry s="0.00000000" x="309.69818071" y="985.53646548" hdg="1.83038997" length="23.71822867">
                <line/>
            </geometry>
            <geometry s="23.71822867" x="303.61000004" y="1008.45999983" hdg="1.83038997" length="4.50932500">
                <paramPoly3 aU="0.00000000" bU="3.38099299" cU="3.34342965" dU="-2.23297339" aV="-0.00000000" bV="0.00000000" cV="-0.87216015" dV="0.48633199" pRange="normalized"/>
            </geometry>
            <geometry s="28.22755367" x="302.83000042" y="1012.89999762" hdg="1.74589879" length="44.42938571">
                <line/>
            </geometry>
        </planView>
        <elevationProfile>
            <elevation s="0" a="0.00" b="0" c="0" d="0"/>
        </elevationProfile>
        <lateralProfile/>
        <lanes>
            <laneSection s="0">
                <center>
                    <lane id="0" type="none" level="true">
                        <link/>
                        <roadMark sOffset="0" type="solid" weight="standard" color="standard" width="0.13"/>
                    </lane>
                </center>
                <right>
                    <lane id="-1" type="driving" level="true">
                        <link/>
                        <width sOffset="0" a="3.20" b="0" c="0" d="0"/>
                        <roadMark sOffset="0" type="solid" weight="standard" color="standard" width="0.13"/>
                        <speed sOffset="0" max="11.11"/>
                    </lane>
                 </right>
            </laneSection>
        </lanes>
        <objects/>
        <signals>
            <signal id="306136288_0" s="72.65693938" t="-1.60000000" orientation="+" dynamic="yes" zOffset="5" country="OpenDRIVE" type="1000001" subtype="-1" height="0.78000000" width="0.26000000">
                <validity fromLane="-1" toLane="-1"/>
            </signal>
        </signals>
    </road>
    <road name="" length="116.78893205" id="946" junction="-1">
        <link>
            <predecessor elementType="junction" elementId="20"/>
            <successor elementType="junction" elementId="18"/>
        </link>
        <type s="0" type="town"/>
        <planView>
            <geometry s="0.00000000" x="346.38843022" y="857.91410387" hdg="1.85164276" length="116.78893205">
                <line/>
            </geometry>
        </planView>
        <elevationProfile>
            <elevation s="0" a="0.00" b="0" c="0" d="0"/>
        </elevationProfile>
        <lateralProfile/>
        <lanes>
            <laneSection s="0">
                <center>
                    <lane id="0" type="none" level="true">
                        <link/>
                        <roadMark sOffset="0" type="solid" weight="standard" color="standard" width="0.13"/>
                    </lane>
                </center>
                <right>
                    <lane id="-1" type="driving" level="true">
                        <link/>
                        <width sOffset="0" a="3.20" b="0" c="0" d="0"/>
                        <roadMark sOffset="0" type="solid" weight="standard" color="standard" width="0.13"/>
                        <speed sOffset="0" max="11.11"/>
                    </lane>
                 </right>
            </laneSection>
        </lanes>
        <objects/>
        <signals/>
    </road>
    <road name="" length="8.86310822" id="947" junction="-1">
        <link>
            <predecessor elementType="junction" elementId="21"/>
            <successor elementType="junction" elementId="20"/>
        </link>
        <type s="0" type="town"/>
        <planView>
            <geometry s="0.00000000" x="348.92038317" y="849.10779767" hdg="1.85074615" length="8.86310822">
                <line/>
            </geometry>
        </planView>
        <elevationProfile>
            <elevation s="0" a="0.00" b="0" c="0" d="0"/>
        </elevationProfile>
        <lateralProfile/>
        <lanes>
            <laneSection s="0">
                <center>
                    <lane id="0" type="none" level="true">
                        <link/>
                        <roadMark sOffset="0" type="solid" weight="standard" color="standard" width="0.13"/>
                    </lane>
                </center>
                <right>
                    <lane id="-1" type="driving" level="true">
                        <link/>
                        <width sOffset="0" a="3.20" b="0" c="0" d="0"/>
                        <roadMark sOffset="0" type="solid" weight="standard" color="standard" width="0.13"/>
                        <speed sOffset="0" max="11.11"/>
                    </lane>
                 </right>
            </laneSection>
        </lanes>
        <objects/>
        <signals/>
    </road>
    <road name="" length="5.15492334" id="948" junction="-1">
        <link>
            <predecessor elementType="junction" elementId="22"/>
            <successor elementType="junction" elementId="21"/>
        </link>
        <type s="0" type="town"/>
        <planView>
            <geometry s="0.00000000" x="350.34090535" y="843.85481538" hdg="1.83447272" length="5.15492334">
                <line/>
            </geometry>
        </planView>
        <elevationProfile>
            <elevation s="0" a="0.00" b="0" c="0" d="0"/>
        </elevationProfile>
        <lateralProfile/>
        <lanes>
            <laneSection s="0">
                <center>
                    <lane id="0" type="none" level="true">
                        <link/>
                        <roadMark sOffset="0" type="solid" weight="standard" color="standard" width="0.13"/>
                    </lane>
                </center>
                <right>
                    <lane id="-1" type="driving" level="true">
                        <link/>
                        <width sOffset="0" a="3.20" b="0" c="0" d="0"/>