<?xml version="1.0" encoding="UTF-8"?>

<!-- generated on 2026-03-13T12:23:31.212292+09:00 by Eclipse SUMO netedit 1.26.0
<neteditConfiguration xmlns:xsi="http://www.w3.org/2001/XMLSchema-instance" xsi:noNamespaceSchemaLocation="http://sumo.dlr.de/xsd/neteditConfiguration.xsd">

    <input>
        <sumo-net-file value="D:\huqianqian_git\AIAgent\20260313_OSM_SUMO_OpenDrive\kawasaki_data\netConvert\kawasaki_filtered.net.xml"/>
    </input>

    <output>
        <output-file value="D:\huqianqian_git\AIAgent\20260313_OSM_SUMO_OpenDrive\kawasaki_data\netConvert\kawasaki_filtered.net.xml"/>
    </output>

    <processing>
        <geometry.min-radius.fix.railways value="false"/>
        <geometry.avoid-overlap value="false"/>
        <geometry.max-grade.fix value="false"/>
        <offset.disable-normalization value="true"/>
        <lefthand value="0"/>
    </processing>

    <junctions>
        <no-turnarounds value="true"/>
        <junctions.corner-detail value="5"/>
        <junctions.limit-turn-speed value="5.50"/>
        <rectangular-lane-cut value="0"/>
    </junctions>

    <pedestrian>
        <walkingareas value="0"/>
    </pedestrian>

</neteditConfiguration>
-->

<net version="1.20" junctionCornerDetail="5" limitTurnSpeed="5.50" avoidOverlap="0" xmlns:xsi="http://www.w3.org/2001/XMLSchema-instance" xsi:noNamespaceSchemaLocation="http://sumo.dlr.de/xsd/net_file.xsd">

    <location netOffset="-378166.96,-3933717.33" convBoundary="0.00,0.00,1314.11,1148.27" origBoundary="139.655925,35.539692,139.670451,35.549999" projParameter="+proj=utm +zone=54 +ellps=WGS84 +datum=WGS84 +units=m +no_defs"/>

    <type id="highway.primary" priority="12" numLanes="2" speed="27.78" disallow="tram rail_urban rail rail_electric rail_fast ship container cable_car subway aircraft wheelchair scooter drone" oneway="0"/>
    <type id="highway.residential" priority="3" numLanes="1" speed="13.89" disallow="tram rail_urban rail rail_electric rail_fast ship container cable_car subway aircraft wheelchair scooter drone" oneway="0"/>
    <type id="highway.tertiary" priority="10" numLanes="1" speed="22.22" disallow="tram rail_urban rail rail_electric rail_fast ship container cable_car subway aircraft wheelchair scooter drone" oneway="0"/>

    <edge id=":13315440559_0" function="internal">
        <lane id=":13315440559_0_0" index="0" disallow="tram rail_urban rail rail_electric rail_fast ship container cable_car subway aircraft wheelchair scooter drone" speed="13.89" length="1.85" shape="740.16,874.40 741.96,873.99"/>
    </edge>
    <edge id=":13315440565_0" function="internal">
        <lane id=":13315440565_0_0" index="0" disallow="tram rail_urban rail rail_electric rail_fast ship container cable_car subway aircraft wheelchair scooter drone" speed="13.89" length="2.73" shape="470.44,914.98 470.99,912.31"/>
    </edge>
    <edge id=":13315440565_1" function="internal">
        <lane id=":13315440565_1_0" index="0" disallow="tram rail_urban rail rail_electric rail_fast ship container cable_car subway aircraft wheelchair scooter drone" speed="13.89" length="2.73" shape="467.86,911.66 467.30,914.34"/>
    </edge>
    <edge id=":13315440583_0" function="internal">
        <lane id=":13315440583_0_0" index="0" disallow="tram rail_urban rail rail_electric rail_fast ship container cable_car subway aircraft wheelchair scooter drone" speed="22.22" length="0.10" shape="420.37,637.84 420.37,637.84"/>
    </edge>
    <edge id=":13315440583_1" function="internal">
        <lane id=":13315440583_1_0" index="0" disallow="tram rail_urban rail rail_electric rail_fast ship container cable_car subway aircraft wheelchair scooter drone" speed="22.22" length="0.10" shape="420.23,634.64 420.23,634.64"/>
    </edge>
    <edge id=":13318651271_0" function="internal">
        <lane id=":13318651271_0_0" index="0" disallow="tram rail_urban rail rail_electric rail_fast ship container cable_car subway aircraft wheelchair scooter drone" speed="13.89" length="1.60" shape="527.75,638.28 528.08,636.72"/>
    </edge>
    <edge id=":13318651271_1" function="internal">
        <lane id=":13318651271_1_0" index="0" disallow="tram rail_urban rail rail_electric rail_fast ship container cable_car subway aircraft wheelchair scooter drone" speed="13.89" length="1.59" shape="524.94,636.07 524.62,637.63"/>
    </edge>
    <edge id=":13318651276_0" function="internal">
        <lane id=":13318651276_0_0" index="0" disallow="tram rail_urban rail rail_electric rail_fast ship container cable_car subway aircraft wheelchair scooter drone" speed="22.22" length="0.30" shape="399.91,638.82 399.62,638.84"/>
    </edge>
    <edge id=":13318651276_1" function="internal">
        <lane id=":13318651276_1_0" index="0" disallow="tram rail_urban rail rail_electric rail_fast ship container cable_car subway aircraft wheelchair scooter drone" speed="22.22" length="0.30" shape="399.44,635.64 399.75,635.62"/>
    </edge>
    <edge id=":13318651278_0" function="internal">
        <lane id=":13318651278_0_0" index="0" disallow="tram rail_urban rail rail_electric rail_fast ship container cable_car subway aircraft wheelchair scooter drone" speed="11.11" length="0.10" shape="408.79,646.29 408.79,646.29"/>
    </edge>
    <edge id=":13318651278_1" function="internal">
        <lane id=":13318651278_1_0" index="0" disallow="tram rail_urban rail rail_electric rail_fast ship container cable_car subway aircraft wheelchair scooter drone" speed="11.11" length="0.10" shape="405.75,645.29 405.75,645.29"/>
    </edge>
    <edge id=":13318651281_0" function="internal">
        <lane id=":13318651281_0_0" index="0" disallow="tram rail_urban rail rail_electric rail_fast ship container cable_car subway aircraft wheelchair scooter drone" speed="13.89" length="0.10" shape="367.58,752.07 367.58,752.07"/>
    </edge>
    <edge id=":13318651281_1" function="internal">
        <lane id=":13318651281_1_0" index="0" disallow="tram rail_urban rail rail_electric rail_fast ship container cable_car subway aircraft wheelchair scooter drone" speed="13.89" length="0.10" shape="368.50,749.01 368.50,749.01"/>
    </edge>
    <edge id=":13318651285_0" function="internal">
        <lane id=":13318651285_0_0" index="0" disallow="tram rail_urban rail rail_electric rail_fast ship container cable_car subway aircraft wheelchair scooter drone" speed="11.11" length="0.10" shape="351.92,844.13 351.92,844.13"/>
    </edge>
    <edge id=":13318651285_1" function="internal">
        <lane id=":13318651285_1_0" index="0" disallow="tram rail_urban rail rail_electric rail_fast ship container cable_car subway aircraft wheelchair scooter drone" speed="11.11" length="0.10" shape="348.84,843.29 348.84,843.29"/>
    </edge>
    <edge id=":13318651290_0" function="internal">
        <lane id=":13318651290_0_0" index="0" disallow="tram rail_urban rail rail_electric rail_fast ship container cable_car subway aircraft wheelchair scooter drone" speed="11.11" length="0.30" shape="348.01,858.07 347.93,858.36"/>
    </edge>
    <edge id=":13318651290_1" function="internal">
        <lane id=":13318651290_1_0" index="0" disallow="tram rail_urban rail rail_electric rail_fast ship container cable_car subway aircraft wheelchair scooter drone" speed="11.11" length="0.30" shape="344.85,857.47 344.93,857.18"/>
    </edge>
    <edge id=":1389183137_0" function="internal">
        <lane id=":1389183137_0_0" index="0" disallow="tram rail_urban rail rail_electric rail_fast ship container cable_car subway aircraft wheelchair scooter drone" speed="8.33" length="0.38" shape="741.10,399.04 741.09,398.93 741.07,398.85 741.06,398.77 741.02,398.67"/>
    </edge>
    <edge id=":1389183137_1" function="internal">
        <lane id=":1389183137_1_0" index="0" disallow="tram rail_urban rail rail_electric rail_fast ship container cable_car subway aircraft wheelchair scooter drone" speed="8.33" length="1.14" shape="744.06,397.67 744.16,397.99 744.22,398.22 744.26,398.45 744.29,398.78"/>
    </edge>
    <edge id=":1389183159_0" function="internal">
        <lane id=":1389183159_0_0" index="0" disallow="tram rail_urban rail rail_electric rail_fast ship container cable_car subway aircraft wheelchair scooter drone" speed="3.65" length="4.67" shape="1313.08,445.60 1314.51,445.43 1315.33,445.79 1315.54,446.66 1315.14,448.04"/>
    </edge>
    <edge id=":1389183191_0" function="internal">
        <lane id=":1389183191_0_0" index="0" disallow="tram rail_urban rail rail_electric rail_fast ship container cable_car subway aircraft wheelchair scooter drone" speed="22.22" length="0.10" shape="906.11,617.49 906.03,617.50"/>
    </edge>
    <edge id=":1389183191_1" function="internal">
        <lane id=":1389183191_1_0" index="0" disallow="tram rail_urban rail rail_electric rail_fast ship container cable_car subway aircraft wheelchair scooter drone" speed="22.22" length="0.10" shape="905.87,614.30 905.79,614.31"/>
    </edge>
    <edge id=":1389183195_0" function="internal">
        <lane id=":1389183195_0_0" index="0" disallow="tram rail_urban rail rail_electric rail_fast ship container cable_car subway aircraft wheelchair scooter drone" speed="22.22" length="0.31" shape="738.47,652.95 738.46,653.26"/>
    </edge>
    <edge id=":1389183195_1" function="internal">
        <lane id=":1389183195_1_0" index="0" disallow="tram rail_urban rail rail_electric rail_fast ship container cable_car subway aircraft wheelchair scooter drone" speed="22.22" length="0.23" shape="735.27,653.15 735.27,652.92"/>
    </edge>
    <edge id=":1389183198_0" function="internal">
        <lane id=":1389183198_0_0" index="0" disallow="tram rail_urban rail rail_electric rail_fast ship container cable_car subway aircraft wheelchair scooter drone" speed="13.89" length="0.10" shape="522.85,661.97 522.85,661.97"/>
    </edge>
    <edge id=":1389183198_1" function="internal">
        <lane id=":1389183198_1_0" index="0" disallow="tram rail_urban rail rail_electric rail_fast ship container cable_car subway aircraft wheelchair scooter drone" speed="13.89" length="0.10" shape="519.71,661.33 519.71,661.33"/>
    </edge>
    <edge id=":1389183202_0" function="internal">
        <lane id=":1389183202_0_0" index="0" disallow="tram rail_urban rail rail_electric rail_fast ship container cable_car subway aircraft wheelchair scooter drone" speed="13.89" length="0.10" shape="517.74,686.65 517.74,686.66"/>
    </edge>
    <edge id=":1389183202_1" function="internal">
        <lane id=":1389183202_1_0" index="0" disallow="tram rail_urban rail rail_electric rail_fast ship container cable_car subway aircraft wheelchair scooter drone" speed="13.89" length="0.10" shape="514.60,686.00 514.60,686.01"/>
    </edge>
    <edge id=":1389183203_0" function="internal">
        <lane id=":1389183203_0_0" index="0" disallow="tram rail_urban rail rail_electric rail_fast ship container cable_car subway aircraft wheelchair scooter drone" speed="22.22" length="0.14" shape="737.00,684.38 736.99,684.42 736.99,684.45 736.99,684.48 736.99,684.52"/>
    </edge>
    <edge id=":1389183203_1" function="internal">
        <lane id=":1389183203_1_0" index="0" disallow="tram rail_urban rail rail_electric rail_fast ship container cable_car subway aircraft wheelchair scooter drone" speed="22.22" length="0.43" shape="733.79,684.47 733.79,684.34 733.79,684.25 733.80,684.16 733.81,684.04"/>
    </edge>
    <edge id=":1389183207_0" function="internal">
        <lane id=":1389183207_0_0" index="0" disallow="tram rail_urban rail rail_electric rail_fast ship container cable_car subway aircraft wheelchair scooter drone" speed="13.89" length="0.30" shape="512.22,713.26 512.16,713.55"/>
    </edge>
    <edge id=":1389183207_1" function="internal">
        <lane id=":1389183207_1_0" index="0" disallow="tram rail_urban rail rail_electric rail_fast ship container cable_car subway aircraft wheelchair scooter drone" speed="13.89" length="0.30" shape="509.02,712.90 509.08,712.61"/>
    </edge>
    <edge id=":1389183211_0" function="internal">
        <lane id=":1389183211_0_0" index="0" disallow="tram rail_urban rail rail_electric rail_fast ship container cable_car subway aircraft wheelchair scooter drone" speed="22.22" length="0.27" shape="736.26,729.68 736.26,729.95"/>
    </edge>
    <edge id=":1389183211_1" function="internal">
        <lane id=":1389183211_1_0" index="0" disallow="tram rail_urban rail rail_electric rail_fast ship container cable_car subway aircraft wheelchair scooter drone" speed="22.22" length="0.31" shape="733.06,729.94 733.06,729.63"/>
    </edge>
    <edge id=":1389183212_0" function="internal">
        <lane id=":1389183212_0_0" index="0" disallow="tram rail_urban rail rail_electric rail_fast ship container cable_car subway aircraft wheelchair scooter drone" speed="22.22" length="0.31" shape="936.89,730.29 936.67,730.51"/>
    </edge>
    <edge id=":1389183212_1" function="internal">
        <lane id=":1389183212_1_0" index="0" disallow="tram rail_urban rail rail_electric rail_fast ship container cable_car subway aircraft wheelchair scooter drone" speed="22.22" length="0.29" shape="934.47,728.18 934.68,727.98"/>
    </edge>
    <edge id=":1721553817_0" function="internal">
        <lane id=":1721553817_0_0" index="0" disallow="tram rail_urban rail rail_electric rail_fast ship container cable_car subway aircraft wheelchair scooter drone" speed="13.89" length="0.10" shape="903.46,796.25 903.46,796.25"/>
    </edge>
    <edge id=":2616360341_0" function="internal">
        <lane id=":2616360341_0_0" index="0" disallow="tram rail_urban rail rail_electric rail_fast ship container cable_car subway aircraft wheelchair scooter drone" speed="22.22" length="0.31" shape="829.02,621.25 828.71,621.26"/>
    </edge>
    <edge id=":2616360341_1" function="internal">
        <lane id=":2616360341_1_0" index="0" disallow="tram rail_urban rail rail_electric rail_fast ship container cable_car subway aircraft wheelchair scooter drone" speed="22.22" length="0.27" shape="828.59,618.07 828.87,618.05"/>
    </edge>
    <edge id=":2616360344_0" function="internal">
        <lane id=":2616360344_0_0" index="0" disallow="tram rail_urban rail rail_electric rail_fast ship container cable_car subway aircraft wheelchair scooter drone" speed="22.22" length="0.10" shape="1008.03,644.03 1007.99,644.08"/>
    </edge>
    <edge id=":2616360344_1" function="internal">
        <lane id=":2616360344_1_0" index="0" disallow="tram rail_urban rail rail_electric rail_fast ship container cable_car subway aircraft wheelchair scooter drone" speed="22.22" length="0.10" shape="1005.51,642.06 1005.47,642.11"/>
    </edge>
    <edge id=":2616360357_0" function="internal">
        <lane id=":2616360357_0_0" index="0" disallow="tram rail_urban rail rail_electric rail_fast ship container cable_car subway aircraft wheelchair scooter drone" speed="13.89" length="0.10" shape="852.32,865.46 852.32,865.46"/>
    </edge>
    <edge id=":2616360358_0" function="internal">
        <lane id=":2616360358_0_0" index="0" disallow="tram rail_urban rail rail_electric rail_fast ship container cable_car subway aircraft wheelchair scooter drone" speed="13.89" length="0.10" shape="834.29,883.43 834.29,883.43"/>
    </edge>
    <edge id=":306136288_0" function="internal">
        <lane id=":306136288_0_0" index="0" disallow="tram rail_urban rail rail_electric rail_fast ship container cable_car subway aircraft wheelchair scooter drone" speed="3.65" length="4.67" shape="296.67,1056.93 295.67,1057.97 294.81,1058.23 294.09,1057.69 293.51,1056.37"/>
    </edge>
    <edge id=":306218665_0" function="internal">
        <lane id=":306218665_0_0" index="0" disallow="tram rail_urban rail rail_electric rail_fast ship container cable_car subway aircraft wheelchair scooter drone" speed="3.65" length="4.67" shape="0.37,668.04 -0.99,667.53 -1.56,666.85 -1.35,665.98 -0.37,664.92"/>
    </edge>
    <edge id=":306218668_0" function="internal">
        <lane id=":306218668_0_0" index="0" disallow="tram rail_urban rail rail_electric rail_fast ship container cable_car subway aircraft wheelchair scooter drone" speed="22.22" length="0.30" shape="156.77,652.24 156.48,652.26"/>
    </edge>
    <edge id=":306218668_1" function="internal">
        <lane id=":306218668_1_0" index="0" disallow="tram rail_urban rail rail_electric rail_fast ship container cable_car subway aircraft wheelchair scooter drone" speed="22.22" length="0.30" shape="156.25,649.06 156.55,649.04"/>
    </edge>
    <edge id=":306218670_0" function="internal">
        <lane id=":306218670_0_0" index="0" disallow="tram rail_urban rail rail_electric rail_fast ship container cable_car subway aircraft wheelchair scooter drone" speed="9.04" length="13.32" shape="418.99,637.90 415.54,638.49 412.74,639.94 410.59,642.25 409.08,645.42"/>
    </edge>
    <edge id=":306218670_1" function="internal">
        <lane id=":306218670_1_0" index="0" disallow="tram rail_urban rail rail_electric rail_fast ship container cable_car subway aircraft wheelchair scooter drone" speed="22.22" length="17.31" shape="418.99,637.90 401.70,638.73"/>
    </edge>
    <edge id=":306218670_2" function="internal">
        <lane id=":306218670_2_0" index="0" disallow="tram rail_urban rail rail_electric rail_fast ship container cable_car subway aircraft wheelchair scooter drone" speed="7.51" length="4.60" shape="418.99,637.90 414.41,637.45"/>
    </edge>
    <edge id=":306218670_3" function="internal">
        <lane id=":306218670_3_0" index="0" disallow="tram rail_urban rail rail_electric rail_fast ship container cable_car subway aircraft wheelchair scooter drone" speed="3.65" length="1.44" shape="418.99,637.90 417.76,637.15"/>
    </edge>
    <edge id=":306218670_16" function="internal">
        <lane id=":306218670_16_0" index="0" disallow="tram rail_urban rail rail_electric rail_fast ship container cable_car subway aircraft wheelchair scooter drone" speed="7.51" length="11.22" shape="414.41,637.45 411.64,635.65 410.67,632.48 411.50,627.96"/>
    </edge>
    <edge id=":306218670_17" function="internal">
        <lane id=":306218670_17_0" index="0" disallow="tram rail_urban rail rail_electric rail_fast ship container cable_car subway aircraft wheelchair scooter drone" speed="3.65" length="3.23" shape="417.76,637.15 417.32,636.37 417.69,635.55 418.85,634.70"/>
    </edge>
    <edge id=":306218670_4" function="internal">
        <lane id=":306218670_4_0" index="0" disallow="tram rail_urban rail rail_electric rail_fast ship container cable_car subway aircraft wheelchair scooter drone" speed="5.86" length="9.12" shape="414.54,628.97 414.06,631.58 414.61,633.40 416.21,634.44 418.85,634.70"/>
    </edge>
    <edge id=":306218670_5" function="internal">
        <lane id=":306218670_5_0" index="0" disallow="tram rail_urban rail rail_electric rail_fast ship container cable_car subway aircraft wheelchair scooter drone" speed="11.11" length="17.33" shape="414.54,628.97 409.08,645.42"/>
    </edge>
    <edge id=":306218670_6" function="internal">
        <lane id=":306218670_6_0" index="0" disallow="tram rail_urban rail rail_electric rail_fast ship container cable_car subway aircraft wheelchair scooter drone" speed="10.29" length="4.74" shape="414.54,628.97 412.58,633.05 412.43,633.20"/>
    </edge>
    <edge id=":306218670_7" function="internal">
        <lane id=":306218670_7_0" index="0" disallow="tram rail_urban rail rail_electric rail_fast ship container cable_car subway aircraft wheelchair scooter drone" speed="3.65" length="1.44" shape="414.54,628.97 413.40,629.86"/>
    </edge>
    <edge id=":306218670_18" function="internal">
        <lane id=":306218670_18_0" index="0" disallow="tram rail_urban rail rail_electric rail_fast ship container cable_car subway aircraft wheelchair scooter drone" speed="10.29" length="12.50" shape="412.43,633.20 409.78,636.03 406.16,637.92 401.70,638.73"/>
    </edge>
    <edge id=":306218670_19" function="internal">
        <lane id=":306218670_19_0" index="0" disallow="tram rail_urban rail rail_electric rail_fast ship container cable_car subway aircraft wheelchair scooter drone" speed="3.65" length="3.23" shape="413.40,629.86 412.51,629.98 411.88,629.35 411.50,627.96"/>
    </edge>
    <edge id=":306218670_8" function="internal">
        <lane id=":306218670_8_0" index="0" disallow="tram rail_urban rail rail_electric rail_fast ship container cable_car subway aircraft wheelchair scooter drone" speed="9.12" length="13.38" shape="401.53,635.53 404.99,634.91 407.81,633.44 409.98,631.12 411.50,627.96"/>
    </edge>
    <edge id=":306218670_9" function="internal">
        <lane id=":306218670_9_0" index="0" disallow="tram rail_urban rail rail_electric rail_fast ship container cable_car subway aircraft wheelchair scooter drone" speed="22.22" length="17.35" shape="401.53,635.53 418.85,634.70"/>
    </edge>
    <edge id=":306218670_10" function="internal">
        <lane id=":306218670_10_0" index="0" disallow="tram rail_urban rail rail_electric rail_fast ship container cable_car subway aircraft wheelchair scooter drone" speed="7.50" length="4.62" shape="401.53,635.53 406.13,635.93"/>
    </edge>
    <edge id=":306218670_11" function="internal">
        <lane id=":306218670_11_0" index="0" disallow="tram rail_urban rail rail_electric rail_fast ship container cable_car subway aircraft wheelchair scooter drone" speed="3.65" length="1.44" shape="401.53,635.53 402.77,636.27"/>
    </edge>
    <edge id=":306218670_20" function="internal">
        <lane id=":306218670_20_0" index="0" disallow="tram rail_urban rail rail_electric rail_fast ship container cable_car subway aircraft wheelchair scooter drone" speed="7.50" length="11.24" shape="406.13,635.93 408.92,637.71 409.90,640.87 409.08,645.42"/>
    </edge>
    <edge id=":306218670_21" function="internal">
        <lane id=":306218670_21_0" index="0" disallow="tram rail_urban rail rail_electric rail_fast ship container cable_car subway aircraft wheelchair scooter drone" speed="3.65" length="3.23" shape="402.77,636.27 403.21,637.04 402.85,637.86 401.70,638.73"/>
    </edge>
    <edge id=":306218670_12" function="internal">
        <lane id=":306218670_12_0" index="0" disallow="tram rail_urban rail rail_electric rail_fast ship container cable_car subway aircraft wheelchair scooter drone" speed="5.85" length="9.12" shape="406.04,644.41 406.51,641.80 405.95,639.98 404.34,638.96 401.70,638.73"/>
    </edge>
    <edge id=":306218670_13" function="internal">
        <lane id=":306218670_13_0" index="0" disallow="tram rail_urban rail rail_electric rail_fast ship container cable_car subway aircraft wheelchair scooter drone" speed="11.11" length="17.34" shape="406.04,644.41 411.50,627.96"/>
    </edge>
    <edge id=":306218670_14" function="internal">
        <lane id=":306218670_14_0" index="0" disallow="tram rail_urban rail rail_electric rail_fast ship container cable_car subway aircraft wheelchair scooter drone" speed="10.21" length="4.78" shape="406.04,644.41 407.99,640.32 408.16,640.14"/>
    </edge>
    <edge id=":306218670_15" function="internal">
        <lane id=":306218670_15_0" index="0" disallow="tram rail_urban rail rail_electric rail_fast ship container cable_car subway aircraft wheelchair scooter drone" speed="3.65" length="1.44" shape="406.04,644.41 407.18,643.52"/>
    </edge>
    <edge id=":306218670_22" function="internal">
        <lane id=":306218670_22_0" index="0" disallow="tram rail_urban rail rail_electric rail_fast ship container cable_car subway aircraft wheelchair scooter drone" speed="10.21" length="12.43" shape="408.16,640.14 410.78,637.34 414.40,635.46 418.85,634.70"/>
    </edge>
    <edge id=":306218670_23" function="internal">
        <lane id=":306218670_23_0" index="0" disallow="tram rail_urban rail rail_electric rail_fast ship container cable_car subway aircraft wheelchair scooter drone" speed="3.65" length="3.23" shape="407.18,643.52 408.06,643.39 408.69,644.03 409.08,645.42"/>
    </edge>
    <edge id=":307926109_0" function="internal">
        <lane id=":307926109_0_0" index="0" disallow="tram rail_urban rail rail_electric rail_fast ship container cable_car subway aircraft wheelchair scooter drone" speed="13.89" length="0.10" shape="486.66,836.69 486.66,836.69"/>
    </edge>
    <edge id=":307926109_1" function="internal">
        <lane id=":307926109_1_0" index="0" disallow="tram rail_urban rail rail_electric rail_fast ship container cable_car subway aircraft wheelchair scooter drone" speed="13.89" length="0.10" shape="483.52,836.05 483.52,836.05"/>
    </edge>
    <edge id=":307926110_0" function="internal">
        <lane id=":307926110_0_0" index="0" disallow="tram rail_urban rail rail_electric rail_fast ship container cable_car subway aircraft wheelchair scooter drone" speed="7.61" length="10.27" shape="535.72,632.89 532.63,633.34 530.28,634.35 528.67,635.94 527.79,638.09"/>
    </edge>
    <edge id=":307926110_1" function="internal">
        <lane id=":307926110_1_0" index="0" disallow="tram rail_urban rail rail_electric rail_fast ship container cable_car subway aircraft wheelchair scooter drone" speed="22.22" length="16.28" shape="535.72,632.89 519.46,633.62"/>
    </edge>
    <edge id=":307926110_2" function="internal">
        <lane id=":307926110_2_0" index="0" disallow="tram rail_urban rail rail_electric rail_fast ship container cable_car subway aircraft wheelchair scooter drone" speed="7.61" length="4.36" shape="535.72,632.89 531.38,632.48"/>
    </edge>
    <edge id=":307926110_3" function="internal">
        <lane id=":307926110_3_0" index="0" disallow="tram rail_urban rail rail_electric rail_fast ship container cable_car subway aircraft wheelchair scooter drone" speed="3.65" length="1.44" shape="535.72,632.89 534.48,632.15"/>
    </edge>
    <edge id=":307926110_16" function="internal">
        <lane id=":307926110_16_0" index="0" disallow="tram rail_urban rail rail_electric rail_fast ship container cable_car subway aircraft wheelchair scooter drone" speed="7.61" length="10.93" shape="531.38,632.48 528.59,630.75 527.34,627.71 527.65,623.36"/>
    </edge>
    <edge id=":307926110_17" function="internal">
        <lane id=":307926110_17_0" index="0" disallow="tram rail_urban rail rail_electric rail_fast ship container cable_car subway aircraft wheelchair scooter drone" speed="3.65" length="3.23" shape="534.48,632.15 534.05,631.37 534.41,630.55 535.57,629.69"/>
    </edge>
    <edge id=":307926110_4" function="internal">
        <lane id=":307926110_4_0" index="0" disallow="tram rail_urban rail rail_electric rail_fast ship container cable_car subway aircraft wheelchair scooter drone" speed="6.02" length="9.08" shape="530.77,624.04 530.59,626.62 531.33,628.42 532.99,629.45 535.57,629.69"/>
    </edge>
    <edge id=":307926110_5" function="internal">
        <lane id=":307926110_5_0" index="0" disallow="tram rail_urban rail rail_electric rail_fast ship container cable_car subway aircraft wheelchair scooter drone" speed="13.89" length="14.36" shape="530.77,624.04 527.79,638.09"/>
    </edge>
    <edge id=":307926110_6" function="internal">
        <lane id=":307926110_6_0" index="0" disallow="tram rail_urban rail rail_electric rail_fast ship container cable_car subway aircraft wheelchair scooter drone" speed="9.27" length="15.64" shape="530.77,624.04 529.24,627.45 526.49,630.48 523.05,632.69 519.46,633.62"/>
    </edge>
    <edge id=":307926110_7" function="internal">
        <lane id=":307926110_7_0" index="0" disallow="tram rail_urban rail rail_electric rail_fast ship container cable_car subway aircraft wheelchair scooter drone" speed="3.65" length="4.67" shape="530.77,624.04 529.74,625.04 528.87,625.26 528.17,624.70 527.65,623.36"/>
    </edge>
    <edge id=":307926110_8" function="internal">
        <lane id=":307926110_8_0" index="0" disallow="tram rail_urban rail rail_electric rail_fast ship container cable_car subway aircraft wheelchair scooter drone" speed="8.14" length="11.87" shape="519.32,630.43 522.42,629.88 524.83,628.51 526.58,626.34 527.65,623.36"/>
    </edge>
    <edge id=":307926110_9" function="internal">
        <lane id=":307926110_9_0" index="0" disallow="tram rail_urban rail rail_electric rail_fast ship container cable_car subway aircraft wheelchair scooter drone" speed="22.22" length="16.26" shape="519.32,630.43 535.57,629.69"/>
    </edge>
    <edge id=":307926110_10" function="internal">
        <lane id=":307926110_10_0" index="0" disallow="tram rail_urban rail rail_electric rail_fast ship container cable_car subway aircraft wheelchair scooter drone" speed="7.30" length="4.63" shape="519.32,630.43 523.66,630.74 523.91,630.86"/>
    </edge>
    <edge id=":307926110_11" function="internal">
        <lane id=":307926110_11_0" index="0" disallow="tram rail_urban rail rail_electric rail_fast ship container cable_car subway aircraft wheelchair scooter drone" speed="3.65" length="1.44" shape="519.32,630.43 520.55,631.17"/>
    </edge>
    <edge id=":307926110_18" function="internal">
        <lane id=":307926110_18_0" index="0" disallow="tram rail_urban rail rail_electric rail_fast ship container cable_car subway aircraft wheelchair scooter drone" speed="7.30" length="9.22" shape="523.91,630.86 526.52,632.13 527.89,634.57 527.79,638.09"/>
    </edge>
    <edge id=":307926110_19" function="internal">
        <lane id=":307926110_19_0" index="0" disallow="tram rail_urban rail rail_electric rail_fast ship container cable_car subway aircraft wheelchair scooter drone" speed="3.65" length="3.23" shape="520.55,631.17 520.99,631.96 520.62,632.77 519.46,633.62"/>
    </edge>
    <edge id=":307926110_12" function="internal">
        <lane id=":307926110_12_0" index="0" disallow="tram rail_urban rail rail_electric rail_fast ship container cable_car subway aircraft wheelchair scooter drone" speed="5.63" length="7.73" shape="524.66,637.44 524.65,635.67 523.78,634.45 522.05,633.77 519.46,633.62"/>
    </edge>
    <edge id=":307926110_13" function="internal">