<?xml version="1.0" encoding="UTF-8"?>

<!-- generated on 2026-03-13T12:12:35.468316+09:00 by Eclipse SUMO netconvert 1.26.0
<netconvertConfiguration xmlns:xsi="http://www.w3.org/2001/XMLSchema-instance" xsi:noNamespaceSchemaLocation="http://sumo.dlr.de/xsd/netconvertConfiguration.xsd">

    <input>
        <osm-files value="kawasaki.osm"/>
    </input>

    <output>
        <output-file value="kawasaki_full.net.xml"/>
    </output>

    <projection>
        <proj.utm value="true"/>
    </projection>

</netconvertConfiguration>
-->

<net version="1.20" junctionCornerDetail="5" limitTurnSpeed="5.50" xmlns:xsi="http://www.w3.org/2001/XMLSchema-instance" xsi:noNamespaceSchemaLocation="http://sumo.dlr.de/xsd/net_file.xsd">

    <location netOffset="-378166.96,-3933717.33" convBoundary="0.00,0.00,1314.11,1148.27" origBoundary="139.655925,35.539692,139.670451,35.549999" projParameter="+proj=utm +zone=54 +ellps=WGS84 +datum=WGS84 +units=m +no_defs"/>

    <type id="highway.footway" priority="1" numLanes="1" speed="2.78" allow="pedestrian" oneway="1" width="2.00"/>
    <type id="highway.primary" priority="12" numLanes="2" speed="27.78" disallow="tram rail_urban rail rail_electric rail_fast ship container cable_car subway aircraft wheelchair scooter drone" oneway="0"/>
    <type id="highway.residential" priority="3" numLanes="1" speed="13.89" disallow="tram rail_urban rail rail_electric rail_fast ship container cable_car subway aircraft wheelchair scooter drone" oneway="0"/>
    <type id="highway.service" priority="1" numLanes="1" speed="5.56" allow="pedestrian delivery bicycle" oneway="0"/>
    <type id="highway.tertiary" priority="10" numLanes="1" speed="22.22" disallow="tram rail_urban rail rail_electric rail_fast ship container cable_car subway aircraft wheelchair scooter drone" oneway="0"/>
    <type id="highway.unclassified" priority="4" numLanes="1" speed="13.89" disallow="tram rail_urban rail rail_electric rail_fast ship container cable_car subway aircraft wheelchair scooter drone" oneway="0"/>

    <edge id=":13315440559_0" function="internal">
        <lane id=":13315440559_0_0" index="0" disallow="tram rail_urban rail rail_electric rail_fast ship container cable_car subway aircraft wheelchair scooter drone" speed="13.89" length="2.53" shape="743.01,873.76 740.54,874.31"/>
    </edge>
    <edge id=":13315440561_0" function="internal">
        <lane id=":13315440561_0_0" index="0" disallow="tram rail_urban rail rail_electric rail_fast ship container cable_car subway aircraft wheelchair scooter drone" speed="13.89" length="3.26" shape="531.77,904.31 530.82,901.20"/>
    </edge>
    <edge id=":13315440561_1" function="internal">
        <lane id=":13315440561_1_0" index="0" disallow="tram rail_urban rail rail_electric rail_fast ship container cable_car subway aircraft wheelchair scooter drone" speed="13.89" length="3.26" shape="533.88,900.27 534.83,903.38"/>
    </edge>
    <edge id=":13315440565_0" function="internal">
        <lane id=":13315440565_0_0" index="0" disallow="tram rail_urban rail rail_electric rail_fast ship container cable_car subway aircraft wheelchair scooter drone" speed="13.89" length="3.98" shape="471.35,910.59 470.54,914.49"/>
    </edge>
    <edge id=":13315440565_1" function="internal">
        <lane id=":13315440565_1_0" index="0" disallow="tram rail_urban rail rail_electric rail_fast ship container cable_car subway aircraft wheelchair scooter drone" speed="13.89" length="3.98" shape="467.41,913.84 468.21,909.94"/>
    </edge>
    <edge id=":13315440571_0" function="internal">
        <lane id=":13315440571_0_0" index="0" disallow="tram rail_urban rail rail_electric rail_fast ship container cable_car subway aircraft wheelchair scooter drone" speed="13.89" length="5.16" shape="360.94,850.87 359.41,850.98 358.36,851.01 357.31,850.97 355.78,850.89"/>
    </edge>
    <edge id=":13315440571_1" function="internal">
        <lane id=":13315440571_1_0" index="0" disallow="tram rail_urban rail rail_electric rail_fast ship container cable_car subway aircraft wheelchair scooter drone" speed="13.89" length="5.14" shape="355.93,847.69 357.46,847.77 358.50,847.80 359.55,847.76 361.07,847.65"/>
    </edge>
    <edge id=":13315440574_0" function="internal">
        <lane id=":13315440574_0_0" index="0" disallow="tram rail_urban rail rail_electric rail_fast ship container cable_car subway aircraft wheelchair scooter drone" speed="13.89" length="5.84" shape="391.44,749.47 385.61,749.78"/>
    </edge>
    <edge id=":13315440574_1" function="internal">
        <lane id=":13315440574_1_0" index="0" disallow="tram rail_urban rail rail_electric rail_fast ship container cable_car subway aircraft wheelchair scooter drone" speed="13.89" length="5.84" shape="385.44,746.58 391.27,746.27"/>
    </edge>
    <edge id=":13315440577_0" function="internal">
        <lane id=":13315440577_0_0" index="0" allow="pedestrian delivery bicycle" speed="5.56" length="5.84" shape="395.44,711.00 401.27,710.68"/>
    </edge>
    <edge id=":13315440580_0" function="internal">
        <lane id=":13315440580_0_0" index="0" allow="pedestrian delivery bicycle" speed="5.56" length="6.69" shape="410.96,678.67 404.27,679.01"/>
    </edge>
    <edge id=":13315440583_0" function="internal">
        <lane id=":13315440583_0_0" index="0" disallow="tram rail_urban rail rail_electric rail_fast ship container cable_car subway aircraft wheelchair scooter drone" speed="22.22" length="6.36" shape="424.21,637.67 417.86,637.95"/>
    </edge>
    <edge id=":13315440583_1" function="internal">
        <lane id=":13315440583_1_0" index="0" disallow="tram rail_urban rail rail_electric rail_fast ship container cable_car subway aircraft wheelchair scooter drone" speed="22.22" length="6.36" shape="417.72,634.75 424.08,634.48"/>
    </edge>
    <edge id=":13315440588_0" function="internal">
        <lane id=":13315440588_0_0" index="0" disallow="tram rail_urban rail rail_electric rail_fast ship container cable_car subway aircraft wheelchair scooter drone" speed="13.89" length="6.18" shape="451.49,541.35 445.31,541.49"/>
    </edge>
    <edge id=":13315440588_1" function="internal">
        <lane id=":13315440588_1_0" index="0" disallow="tram rail_urban rail rail_electric rail_fast ship container cable_car subway aircraft wheelchair scooter drone" speed="13.89" length="6.18" shape="445.24,538.29 451.42,538.15"/>
    </edge>
    <edge id=":13318651271_0" function="internal">
        <lane id=":13318651271_0_0" index="0" disallow="tram rail_urban rail rail_electric rail_fast ship container cable_car subway aircraft wheelchair scooter drone" speed="13.89" length="3.06" shape="528.07,636.77 527.45,639.76"/>
    </edge>
    <edge id=":13318651271_1" function="internal">
        <lane id=":13318651271_1_0" index="0" disallow="tram rail_urban rail rail_electric rail_fast ship container cable_car subway aircraft wheelchair scooter drone" speed="13.89" length="3.06" shape="524.31,639.11 524.93,636.11"/>
    </edge>
    <edge id=":13318651276_0" function="internal">
        <lane id=":13318651276_0_0" index="0" disallow="tram rail_urban rail rail_electric rail_fast ship container cable_car subway aircraft wheelchair scooter drone" speed="22.22" length="6.58" shape="402.53,638.68 395.96,639.03"/>
    </edge>
    <edge id=":13318651276_1" function="internal">
        <lane id=":13318651276_1_0" index="0" disallow="tram rail_urban rail rail_electric rail_fast ship container cable_car subway aircraft wheelchair scooter drone" speed="22.22" length="6.58" shape="395.79,635.84 402.36,635.49"/>
    </edge>
    <edge id=":13318651278_0" function="internal">
        <lane id=":13318651278_0_0" index="0" disallow="tram rail_urban rail rail_electric rail_fast ship container cable_car subway aircraft wheelchair scooter drone" speed="11.11" length="4.76" shape="409.36,644.56 407.87,649.07"/>
    </edge>
    <edge id=":13318651278_1" function="internal">
        <lane id=":13318651278_1_0" index="0" disallow="tram rail_urban rail rail_electric rail_fast ship container cable_car subway aircraft wheelchair scooter drone" speed="11.11" length="4.76" shape="404.83,648.07 406.32,643.56"/>
    </edge>
    <edge id=":13318651281_0" function="internal">
        <lane id=":13318651281_0_0" index="0" disallow="tram rail_urban rail rail_electric rail_fast ship container cable_car subway aircraft wheelchair scooter drone" speed="13.89" length="4.36" shape="369.27,752.58 365.09,751.32"/>
    </edge>
    <edge id=":13318651281_1" function="internal">
        <lane id=":13318651281_1_0" index="0" disallow="tram rail_urban rail rail_electric rail_fast ship container cable_car subway aircraft wheelchair scooter drone" speed="13.89" length="4.36" shape="366.02,748.26 370.19,749.52"/>
    </edge>
    <edge id=":13318651285_0" function="internal">
        <lane id=":13318651285_0_0" index="0" disallow="tram rail_urban rail rail_electric rail_fast ship container cable_car subway aircraft wheelchair scooter drone" speed="11.11" length="3.40" shape="352.75,841.06 351.87,844.34"/>
    </edge>
    <edge id=":13318651285_1" function="internal">
        <lane id=":13318651285_1_0" index="0" disallow="tram rail_urban rail rail_electric rail_fast ship container cable_car subway aircraft wheelchair scooter drone" speed="11.11" length="3.40" shape="348.78,843.51 349.66,840.22"/>
    </edge>
    <edge id=":13318651290_0" function="internal">
        <lane id=":13318651290_0_0" index="0" disallow="tram rail_urban rail rail_electric rail_fast ship container cable_car subway aircraft wheelchair scooter drone" speed="11.11" length="5.60" shape="348.54,856.21 346.99,861.59"/>
    </edge>
    <edge id=":13318651290_1" function="internal">
        <lane id=":13318651290_1_0" index="0" disallow="tram rail_urban rail rail_electric rail_fast ship container cable_car subway aircraft wheelchair scooter drone" speed="11.11" length="5.60" shape="343.92,860.71 345.47,855.33"/>
    </edge>
    <edge id=":1389183137_0" function="internal">
        <lane id=":1389183137_0_0" index="0" disallow="tram rail_urban rail rail_electric rail_fast ship container cable_car subway aircraft wheelchair scooter drone" speed="8.33" length="16.45" shape="741.82,410.64 741.84,406.67 741.44,402.44 740.68,398.25 739.63,394.42"/>
    </edge>
    <edge id=":1389183137_1" function="internal">
        <lane id=":1389183137_1_0" index="0" disallow="tram rail_urban rail rail_electric rail_fast ship container cable_car subway aircraft wheelchair scooter drone" speed="7.35" length="4.01" shape="741.82,410.64 742.56,406.70"/>
    </edge>
    <edge id=":1389183137_2" function="internal">
        <lane id=":1389183137_2_0" index="0" disallow="tram rail_urban rail rail_electric rail_fast ship container cable_car subway aircraft wheelchair scooter drone" speed="3.66" length="1.46" shape="741.82,410.64 742.53,409.36"/>
    </edge>
    <edge id=":1389183137_9" function="internal">
        <lane id=":1389183137_9_0" index="0" disallow="tram rail_urban rail rail_electric rail_fast ship container cable_car subway aircraft wheelchair scooter drone" speed="7.35" length="13.77" shape="742.56,406.70 742.87,405.02 745.03,402.26 748.30,402.38 752.67,405.36"/>
    </edge>
    <edge id=":1389183137_10" function="internal">
        <lane id=":1389183137_10_0" index="0" disallow="tram rail_urban rail rail_electric rail_fast ship container cable_car subway aircraft wheelchair scooter drone" speed="3.66" length="3.27" shape="742.53,409.36 743.30,408.90 744.14,409.24 745.04,410.38"/>
    </edge>
    <edge id=":1389183137_3" function="internal">
        <lane id=":1389183137_3_0" index="0" disallow="tram rail_urban rail rail_electric rail_fast ship container cable_car subway aircraft wheelchair scooter drone" speed="5.43" length="8.98" shape="750.54,407.75 748.32,406.23 746.67,406.17 745.58,407.55 745.04,410.38"/>
    </edge>
    <edge id=":1389183137_4" function="internal">
        <lane id=":1389183137_4_0" index="0" disallow="tram rail_urban rail rail_electric rail_fast ship container cable_car subway aircraft wheelchair scooter drone" speed="11.11" length="17.38" shape="750.54,407.75 747.48,404.92 744.27,401.61 741.46,398.03 739.63,394.42"/>
    </edge>
    <edge id=":1389183137_5" function="internal">
        <lane id=":1389183137_5_0" index="0" disallow="tram rail_urban rail rail_electric rail_fast ship container cable_car subway aircraft wheelchair scooter drone" speed="3.65" length="4.67" shape="750.54,407.75 750.18,406.35 750.41,405.49 751.25,405.16 752.67,405.36"/>
    </edge>
    <edge id=":1389183137_6" function="internal">
        <lane id=":1389183137_6_0" index="0" disallow="tram rail_urban rail rail_electric rail_fast ship container cable_car subway aircraft wheelchair scooter drone" speed="11.11" length="15.75" shape="742.67,393.42 744.36,396.82 746.86,399.92 749.76,402.76 752.67,405.36"/>
    </edge>
    <edge id=":1389183137_7" function="internal">
        <lane id=":1389183137_7_0" index="0" disallow="tram rail_urban rail rail_electric rail_fast ship container cable_car subway aircraft wheelchair scooter drone" speed="8.33" length="17.21" shape="742.67,393.42 743.75,397.37 744.57,401.81 745.04,406.29 745.04,410.38"/>
    </edge>
    <edge id=":1389183137_8" function="internal">
        <lane id=":1389183137_8_0" index="0" disallow="tram rail_urban rail rail_electric rail_fast ship container cable_car subway aircraft wheelchair scooter drone" speed="3.65" length="1.44" shape="742.67,393.42 742.28,394.81"/>
    </edge>
    <edge id=":1389183137_11" function="internal">
        <lane id=":1389183137_11_0" index="0" disallow="tram rail_urban rail rail_electric rail_fast ship container cable_car subway aircraft wheelchair scooter drone" speed="3.65" length="3.23" shape="742.28,394.81 741.64,395.44 740.76,395.31 739.63,394.42"/>
    </edge>
    <edge id=":1389183159_0" function="internal">
        <lane id=":1389183159_0_0" index="0" disallow="tram rail_urban rail rail_electric rail_fast ship container cable_car subway aircraft wheelchair scooter drone" speed="3.65" length="4.67" shape="1313.08,445.60 1314.51,445.43 1315.33,445.79 1315.54,446.66 1315.14,448.04"/>
    </edge>
    <edge id=":1389183167_0" function="internal">
        <lane id=":1389183167_0_0" index="0" disallow="tram rail_urban rail rail_electric rail_fast ship container cable_car subway aircraft wheelchair scooter drone" speed="3.65" length="4.67" shape="998.99,471.98 1000.36,472.45 1000.95,473.12 1000.76,474.00 999.81,475.08"/>
    </edge>
    <edge id=":1389183169_0" function="internal">
        <lane id=":1389183169_0_0" index="0" disallow="tram rail_urban rail rail_electric rail_fast ship container cable_car subway aircraft wheelchair scooter drone" speed="13.89" length="9.95" shape="960.62,485.44 950.99,487.91"/>
    </edge>
    <edge id=":1389183169_1" function="internal">
        <lane id=":1389183169_1_0" index="0" allow="pedestrian delivery bicycle" speed="8.22" length="2.75" shape="960.62,485.44 958.33,485.60 957.90,485.46"/>
    </edge>
    <edge id=":1389183169_7" function="internal">
        <lane id=":1389183169_7_0" index="0" allow="pedestrian delivery bicycle" speed="8.22" length="8.00" shape="957.90,485.46 956.08,484.87 953.86,483.25 951.67,480.73"/>
    </edge>
    <edge id=":1389183169_2" function="internal">
        <lane id=":1389183169_2_0" index="0" allow="pedestrian delivery bicycle" speed="6.71" length="6.92" shape="954.26,478.84 955.74,480.62 957.16,481.80 958.52,482.37 959.80,482.34"/>
    </edge>
    <edge id=":1389183169_3" function="internal">
        <lane id=":1389183169_3_0" index="0" allow="pedestrian delivery bicycle" speed="6.67" length="12.34" shape="954.26,478.84 955.96,482.02 955.98,484.59 954.32,486.55 950.99,487.91"/>
    </edge>
    <edge id=":1389183169_4" function="internal">
        <lane id=":1389183169_4_0" index="0" allow="pedestrian delivery bicycle" speed="3.65" length="4.67" shape="954.26,478.84 954.32,480.28 953.91,481.08 953.03,481.23 951.67,480.73"/>
    </edge>
    <edge id=":1389183169_5" function="internal">
        <lane id=":1389183169_5_0" index="0" allow="pedestrian delivery bicycle" speed="4.74" length="5.55" shape="950.20,484.80 951.70,484.20 952.45,483.31 952.44,482.16 951.67,480.73"/>
    </edge>
    <edge id=":1389183169_6" function="internal">
        <lane id=":1389183169_6_0" index="0" disallow="tram rail_urban rail rail_electric rail_fast ship container cable_car subway aircraft wheelchair scooter drone" speed="13.89" length="9.91" shape="950.20,484.80 959.80,482.34"/>
    </edge>
    <edge id=":1389183173_0" function="internal">
        <lane id=":1389183173_0_0" index="0" disallow="tram rail_urban rail rail_electric rail_fast ship container cable_car subway aircraft wheelchair scooter drone" speed="11.05" length="15.53" shape="931.13,500.73 927.72,498.17 924.21,496.61 920.59,496.06 916.86,496.51"/>
    </edge>
    <edge id=":1389183173_1" function="internal">
        <lane id=":1389183173_1_0" index="0" disallow="tram rail_urban rail rail_electric rail_fast ship container cable_car subway aircraft wheelchair scooter drone" speed="13.89" length="18.87" shape="931.13,500.73 928.01,497.69 924.54,493.98 921.22,490.13 918.56,486.69"/>
    </edge>
    <edge id=":1389183173_2" function="internal">
        <lane id=":1389183173_2_0" index="0" disallow="tram rail_urban rail rail_electric rail_fast ship container cable_car subway aircraft wheelchair scooter drone" speed="7.39" length="17.25" shape="931.13,500.73 927.74,496.72 927.11,493.40 929.24,490.78 934.12,488.86"/>
    </edge>
    <edge id=":1389183173_3" function="internal">
        <lane id=":1389183173_3_0" index="0" disallow="tram rail_urban rail rail_electric rail_fast ship container cable_car subway aircraft wheelchair scooter drone" speed="3.65" length="4.67" shape="931.13,500.73 930.78,499.33 931.03,498.47 931.86,498.15 933.29,498.37"/>
    </edge>
    <edge id=":1389183173_4" function="internal">
        <lane id=":1389183173_4_0" index="0" disallow="tram rail_urban rail rail_electric rail_fast ship container cable_car subway aircraft wheelchair scooter drone" speed="5.61" length="9.31" shape="934.90,491.96 932.27,493.00 931.12,494.42 931.46,496.21 933.29,498.37"/>
    </edge>
    <edge id=":1389183173_5" function="internal">
        <lane id=":1389183173_5_0" index="0" disallow="tram rail_urban rail rail_electric rail_fast ship container cable_car subway aircraft wheelchair scooter drone" speed="13.89" length="18.61" shape="934.90,491.96 916.86,496.51"/>
    </edge>
    <edge id=":1389183173_6" function="internal">
        <lane id=":1389183173_6_0" index="0" disallow="tram rail_urban rail rail_electric rail_fast ship container cable_car subway aircraft wheelchair scooter drone" speed="10.45" length="5.35" shape="934.90,491.96 930.49,492.27 929.58,492.09"/>
    </edge>
    <edge id=":1389183173_7" function="internal">
        <lane id=":1389183173_7_0" index="0" disallow="tram rail_urban rail rail_electric rail_fast ship container cable_car subway aircraft wheelchair scooter drone" speed="3.65" length="1.44" shape="934.90,491.96 933.54,491.48"/>
    </edge>
    <edge id=":1389183173_16" function="internal">
        <lane id=":1389183173_16_0" index="0" disallow="tram rail_urban rail rail_electric rail_fast ship container cable_car subway aircraft wheelchair scooter drone" speed="10.45" length="12.56" shape="929.58,492.09 925.78,491.33 921.55,489.38 918.56,486.69"/>
    </edge>
    <edge id=":1389183173_17" function="internal">
        <lane id=":1389183173_17_0" index="0" disallow="tram rail_urban rail rail_electric rail_fast ship container cable_car subway aircraft wheelchair scooter drone" speed="3.65" length="3.23" shape="933.54,491.48 932.96,490.80 933.15,489.93 934.12,488.86"/>
    </edge>
    <edge id=":1389183173_8" function="internal">
        <lane id=":1389183173_8_0" index="0" disallow="tram rail_urban rail rail_electric rail_fast ship container cable_car subway aircraft wheelchair scooter drone" speed="9.44" length="14.49" shape="921.17,484.84 923.62,487.41 926.59,488.93 930.10,489.42 934.12,488.86"/>
    </edge>
    <edge id=":1389183173_9" function="internal">
        <lane id=":1389183173_9_0" index="0" disallow="tram rail_urban rail rail_electric rail_fast ship container cable_car subway aircraft wheelchair scooter drone" speed="13.89" length="18.19" shape="921.17,484.84 923.76,488.20 926.93,491.87 930.24,495.41 933.29,498.37"/>
    </edge>
    <edge id=":1389183173_10" function="internal">
        <lane id=":1389183173_10_0" index="0" disallow="tram rail_urban rail rail_electric rail_fast ship container cable_car subway aircraft wheelchair scooter drone" speed="7.51" length="15.84" shape="921.17,484.84 923.28,488.94 923.27,492.25 921.13,494.77 916.86,496.51"/>
    </edge>
    <edge id=":1389183173_11" function="internal">
        <lane id=":1389183173_11_0" index="0" disallow="tram rail_urban rail rail_electric rail_fast ship container cable_car subway aircraft wheelchair scooter drone" speed="3.65" length="4.67" shape="921.17,484.84 921.21,486.28 920.79,487.07 919.90,487.21 918.56,486.69"/>
    </edge>
    <edge id=":1389183173_12" function="internal">
        <lane id=":1389183173_12_0" index="0" disallow="tram rail_urban rail rail_electric rail_fast ship container cable_car subway aircraft wheelchair scooter drone" speed="5.86" length="9.12" shape="916.07,493.41 918.53,492.41 919.77,490.95 919.77,489.05 918.56,486.69"/>
    </edge>
    <edge id=":1389183173_13" function="internal">
        <lane id=":1389183173_13_0" index="0" disallow="tram rail_urban rail rail_electric rail_fast ship container cable_car subway aircraft wheelchair scooter drone" speed="13.89" length="18.61" shape="916.07,493.41 934.12,488.86"/>
    </edge>
    <edge id=":1389183173_14" function="internal">
        <lane id=":1389183173_14_0" index="0" disallow="tram rail_urban rail rail_electric rail_fast ship container cable_car subway aircraft wheelchair scooter drone" speed="11.99" length="4.87" shape="916.07,493.41 920.15,493.18 920.92,493.33"/>
    </edge>
    <edge id=":1389183173_15" function="internal">
        <lane id=":1389183173_15_0" index="0" disallow="tram rail_urban rail rail_electric rail_fast ship container cable_car subway aircraft wheelchair scooter drone" speed="3.65" length="1.44" shape="916.07,493.41 917.43,493.89"/>
    </edge>
    <edge id=":1389183173_18" function="internal">
        <lane id=":1389183173_18_0" index="0" disallow="tram rail_urban rail rail_electric rail_fast ship container cable_car subway aircraft wheelchair scooter drone" speed="11.99" length="13.53" shape="920.92,493.33 924.92,494.08 929.57,495.89 933.29,498.37"/>
    </edge>
    <edge id=":1389183173_19" function="internal">
        <lane id=":1389183173_19_0" index="0" disallow="tram rail_urban rail rail_electric rail_fast ship container cable_car subway aircraft wheelchair scooter drone" speed="3.65" length="3.23" shape="917.43,493.89 918.02,494.57 917.83,495.44 916.86,496.51"/>
    </edge>
    <edge id=":1389183174_0" function="internal">
        <lane id=":1389183174_0_0" index="0" disallow="tram rail_urban rail rail_electric rail_fast ship container cable_car subway aircraft wheelchair scooter drone" speed="8.54" length="13.37" shape="865.44,516.19 863.60,513.69 861.06,512.18 857.80,511.66 853.82,512.13"/>
    </edge>
    <edge id=":1389183174_1" function="internal">
        <lane id=":1389183174_1_0" index="0" disallow="tram rail_urban rail rail_electric rail_fast ship container cable_car subway aircraft wheelchair scooter drone" speed="13.89" length="17.26" shape="865.44,516.19 863.36,512.67 860.67,509.03 857.71,505.60 854.80,502.69"/>
    </edge>
    <edge id=":1389183174_2" function="internal">
        <lane id=":1389183174_2_0" index="0" disallow="tram rail_urban rail rail_electric rail_fast ship container cable_car subway aircraft wheelchair scooter drone" speed="7.68" length="15.06" shape="865.44,516.19 864.12,512.14 864.56,508.90 866.74,506.47 870.68,504.85"/>
    </edge>
    <edge id=":1389183174_3" function="internal">
        <lane id=":1389183174_3_0" index="0" disallow="tram rail_urban rail rail_electric rail_fast ship container cable_car subway aircraft wheelchair scooter drone" speed="3.65" length="4.67" shape="865.44,516.19 865.63,514.76 866.17,514.05 867.06,514.06 868.31,514.78"/>
    </edge>
    <edge id=":1389183174_4" function="internal">
        <lane id=":1389183174_4_0" index="0" disallow="tram rail_urban rail rail_electric rail_fast ship container cable_car subway aircraft wheelchair scooter drone" speed="6.10" length="9.06" shape="871.47,507.96 869.09,508.93 867.78,510.39 867.52,512.34 868.31,514.78"/>
    </edge>
    <edge id=":1389183174_5" function="internal">
        <lane id=":1389183174_5_0" index="0" disallow="tram rail_urban rail rail_electric rail_fast ship container cable_car subway aircraft wheelchair scooter drone" speed="13.89" length="18.13" shape="871.47,507.96 853.82,512.13"/>
    </edge>
    <edge id=":1389183174_6" function="internal">
        <lane id=":1389183174_6_0" index="0" disallow="tram rail_urban rail rail_electric rail_fast ship container cable_car subway aircraft wheelchair scooter drone" speed="11.85" length="4.68" shape="871.47,507.96 867.63,508.11 866.81,507.93"/>
    </edge>
    <edge id=":1389183174_7" function="internal">
        <lane id=":1389183174_7_0" index="0" disallow="tram rail_urban rail rail_electric rail_fast ship container cable_car subway aircraft wheelchair scooter drone" speed="3.65" length="1.44" shape="871.47,507.96 870.11,507.47"/>
    </edge>
    <edge id=":1389183174_16" function="internal">
        <lane id=":1389183174_16_0" index="0" disallow="tram rail_urban rail rail_electric rail_fast ship container cable_car subway aircraft wheelchair scooter drone" speed="11.85" length="13.25" shape="866.81,507.93 863.05,507.12 858.51,505.23 854.80,502.69"/>
    </edge>
    <edge id=":1389183174_17" function="internal">
        <lane id=":1389183174_17_0" index="0" disallow="tram rail_urban rail rail_electric rail_fast ship container cable_car subway aircraft wheelchair scooter drone" speed="3.65" length="3.23" shape="870.11,507.47 869.52,506.80 869.71,505.92 870.68,504.85"/>
    </edge>
    <edge id=":1389183174_8" function="internal">
        <lane id=":1389183174_8_0" index="0" disallow="tram rail_urban rail rail_electric rail_fast ship container cable_car subway aircraft wheelchair scooter drone" speed="10.89" length="15.06" shape="856.96,500.33 860.38,502.96 863.81,504.59 867.25,505.22 870.68,504.85"/>
    </edge>
    <edge id=":1389183174_9" function="internal">
        <lane id=":1389183174_9_0" index="0" disallow="tram rail_urban rail rail_electric rail_fast ship container cable_car subway aircraft wheelchair scooter drone" speed="13.89" length="18.44" shape="856.96,500.33 859.98,503.38 863.19,507.14 866.12,511.11 868.31,514.78"/>
    </edge>
    <edge id=":1389183174_10" function="internal">
        <lane id=":1389183174_10_0" index="0" disallow="tram rail_urban rail rail_electric rail_fast ship container cable_car subway aircraft wheelchair scooter drone" speed="7.38" length="17.46" shape="856.96,500.33 860.42,504.41 861.05,507.74 858.85,510.31 853.82,512.13"/>
    </edge>
    <edge id=":1389183174_11" function="internal">
        <lane id=":1389183174_11_0" index="0" disallow="tram rail_urban rail rail_electric rail_fast ship container cable_car subway aircraft wheelchair scooter drone" speed="3.65" length="4.67" shape="856.96,500.33 857.30,501.73 857.06,502.59 856.23,502.91 854.80,502.69"/>
    </edge>
    <edge id=":1389183174_12" function="internal">
        <lane id=":1389183174_12_0" index="0" disallow="tram rail_urban rail rail_electric rail_fast ship container cable_car subway aircraft wheelchair scooter drone" speed="5.59" length="9.35" shape="853.12,509.01 855.81,508.04 856.99,506.66 856.65,504.88 854.80,502.69"/>
    </edge>
    <edge id=":1389183174_13" function="internal">
        <lane id=":1389183174_13_0" index="0" disallow="tram rail_urban rail rail_electric rail_fast ship container cable_car subway aircraft wheelchair scooter drone" speed="13.89" length="18.05" shape="853.12,509.01 870.68,504.85"/>
    </edge>
    <edge id=":1389183174_14" function="internal">
        <lane id=":1389183174_14_0" index="0" disallow="tram rail_urban rail rail_electric rail_fast ship container cable_car subway aircraft wheelchair scooter drone" speed="9.59" length="5.28" shape="853.12,509.01 857.44,508.83 858.37,509.05"/>
    </edge>
    <edge id=":1389183174_15" function="internal">
        <lane id=":1389183174_15_0" index="0" disallow="tram rail_urban rail rail_electric rail_fast ship container cable_car subway aircraft wheelchair scooter drone" speed="3.65" length="1.44" shape="853.12,509.01 854.47,509.53"/>
    </edge>
    <edge id=":1389183174_18" function="internal">
        <lane id=":1389183174_18_0" index="0" disallow="tram rail_urban rail rail_electric rail_fast ship container cable_car subway aircraft wheelchair scooter drone" speed="9.59" length="11.82" shape="858.37,509.05 861.93,509.90 865.82,511.97 868.31,514.78"/>
    </edge>
    <edge id=":1389183174_19" function="internal">
        <lane id=":1389183174_19_0" index="0" disallow="tram rail_urban rail rail_electric rail_fast ship container cable_car subway aircraft wheelchair scooter drone" speed="3.65" length="3.23" shape="854.47,509.53 855.03,510.22 854.82,511.09 853.82,512.13"/>
    </edge>
    <edge id=":1389183176_0" function="internal">
        <lane id=":1389183176_0_0" index="0" allow="pedestrian delivery bicycle" speed="4.99" length="5.06" shape="794.06,528.33 793.70,526.98 793.00,526.09 791.95,525.66 790.56,525.69"/>
    </edge>
    <edge id=":1389183176_1" function="internal">