<?xml version="1.0" encoding="UTF-8"?>

<!-- generated on 2026-03-04T15:47:46.097066+09:00 by Eclipse SUMO netconvert 1.26.0
<netconvertConfiguration xmlns:xsi="http://www.w3.org/2001/XMLSchema-instance" xsi:noNamespaceSchemaLocation="http://sumo.dlr.de/xsd/netconvertConfiguration.xsd">

    <input>
        <osm-files value="D:\Data\SUMO_Data\kawasaki.osm"/>
    </input>

    <output>
        <output-file value="D:\Data\SUMO_Data\kawasaki.net.xml"/>
    </output>

    <projection>
        <proj.utm value="true"/>
    </projection>

    <processing>
        <lefthand value="true"/>
    </processing>

</netconvertConfiguration>
-->

<net version="1.20" junctionCornerDetail="5" lefthand="true" limitTurnSpeed="5.50" xmlns:xsi="http://www.w3.org/2001/XMLSchema-instance" xsi:noNamespaceSchemaLocation="http://sumo.dlr.de/xsd/net_file.xsd">

    <location netOffset="-378166.96,-3933717.33" convBoundary="0.00,-0.00,1314.11,1148.27" origBoundary="139.655925,35.539692,139.670451,35.549999" projParameter="+proj=utm +zone=54 +ellps=WGS84 +datum=WGS84 +units=m +no_defs"/>

    <type id="highway.footway" priority="1" numLanes="1" speed="2.78" allow="pedestrian" oneway="1" width="2.00"/>
    <type id="highway.primary" priority="12" numLanes="2" speed="27.78" disallow="tram rail_urban rail rail_electric rail_fast ship container cable_car subway aircraft wheelchair scooter drone" oneway="0"/>
    <type id="highway.residential" priority="3" numLanes="1" speed="13.89" disallow="tram rail_urban rail rail_electric rail_fast ship container cable_car subway aircraft wheelchair scooter drone" oneway="0"/>
    <type id="highway.service" priority="1" numLanes="1" speed="5.56" allow="pedestrian delivery bicycle" oneway="0"/>
    <type id="highway.tertiary" priority="10" numLanes="1" speed="22.22" disallow="tram rail_urban rail rail_electric rail_fast ship container cable_car subway aircraft wheelchair scooter drone" oneway="0"/>
    <type id="highway.unclassified" priority="4" numLanes="1" speed="13.89" disallow="tram rail_urban rail rail_electric rail_fast ship container cable_car subway aircraft wheelchair scooter drone" oneway="0"/>

    <edge id=":13315440559_0" function="internal">
        <lane id=":13315440559_0_0" index="0" disallow="tram rail_urban rail rail_electric rail_fast ship container cable_car subway aircraft wheelchair scooter drone" speed="13.89" length="2.12" shape="743.01,873.76 740.94,874.22"/>
    </edge>
    <edge id=":13315440561_0" function="internal">
        <lane id=":13315440561_0_0" index="0" disallow="tram rail_urban rail rail_electric rail_fast ship container cable_car subway aircraft wheelchair scooter drone" speed="13.89" length="3.26" shape="534.83,903.38 533.88,900.27"/>
    </edge>
    <edge id=":13315440561_1" function="internal">
        <lane id=":13315440561_1_0" index="0" disallow="tram rail_urban rail rail_electric rail_fast ship container cable_car subway aircraft wheelchair scooter drone" speed="13.89" length="3.26" shape="530.82,901.20 531.77,904.31"/>
    </edge>
    <edge id=":13315440565_0" function="internal">
        <lane id=":13315440565_0_0" index="0" disallow="tram rail_urban rail rail_electric rail_fast ship container cable_car subway aircraft wheelchair scooter drone" speed="13.89" length="3.98" shape="468.21,909.94 467.41,913.84"/>
    </edge>
    <edge id=":13315440565_1" function="internal">
        <lane id=":13315440565_1_0" index="0" disallow="tram rail_urban rail rail_electric rail_fast ship container cable_car subway aircraft wheelchair scooter drone" speed="13.89" length="3.98" shape="470.54,914.49 471.35,910.59"/>
    </edge>
    <edge id=":13315440571_0" function="internal">
        <lane id=":13315440571_0_0" index="0" disallow="tram rail_urban rail rail_electric rail_fast ship container cable_car subway aircraft wheelchair scooter drone" speed="13.89" length="5.14" shape="361.07,847.65 359.55,847.76 358.50,847.80 357.46,847.77 355.93,847.69"/>
    </edge>
    <edge id=":13315440571_1" function="internal">
        <lane id=":13315440571_1_0" index="0" disallow="tram rail_urban rail rail_electric rail_fast ship container cable_car subway aircraft wheelchair scooter drone" speed="13.89" length="5.16" shape="355.78,850.89 357.31,850.97 358.36,851.01 359.41,850.98 360.94,850.87"/>
    </edge>
    <edge id=":13315440574_0" function="internal">
        <lane id=":13315440574_0_0" index="0" disallow="tram rail_urban rail rail_electric rail_fast ship container cable_car subway aircraft wheelchair scooter drone" speed="13.89" length="5.84" shape="391.27,746.27 385.44,746.58"/>
    </edge>
    <edge id=":13315440574_1" function="internal">
        <lane id=":13315440574_1_0" index="0" disallow="tram rail_urban rail rail_electric rail_fast ship container cable_car subway aircraft wheelchair scooter drone" speed="13.89" length="5.84" shape="385.61,749.78 391.44,749.47"/>
    </edge>
    <edge id=":13315440577_0" function="internal">
        <lane id=":13315440577_0_0" index="0" allow="pedestrian delivery bicycle" speed="5.56" length="5.84" shape="395.44,711.00 401.27,710.68"/>
    </edge>
    <edge id=":13315440580_0" function="internal">
        <lane id=":13315440580_0_0" index="0" allow="pedestrian delivery bicycle" speed="5.56" length="6.69" shape="410.96,678.67 404.27,679.01"/>
    </edge>
    <edge id=":13315440583_0" function="internal">
        <lane id=":13315440583_0_0" index="0" disallow="tram rail_urban rail rail_electric rail_fast ship container cable_car subway aircraft wheelchair scooter drone" speed="22.22" length="6.36" shape="424.08,634.48 417.72,634.75"/>
    </edge>
    <edge id=":13315440583_1" function="internal">
        <lane id=":13315440583_1_0" index="0" disallow="tram rail_urban rail rail_electric rail_fast ship container cable_car subway aircraft wheelchair scooter drone" speed="22.22" length="6.36" shape="417.86,637.95 424.21,637.67"/>
    </edge>
    <edge id=":13315440588_0" function="internal">
        <lane id=":13315440588_0_0" index="0" disallow="tram rail_urban rail rail_electric rail_fast ship container cable_car subway aircraft wheelchair scooter drone" speed="13.89" length="6.18" shape="451.42,538.15 445.24,538.29"/>
    </edge>
    <edge id=":13315440588_1" function="internal">
        <lane id=":13315440588_1_0" index="0" disallow="tram rail_urban rail rail_electric rail_fast ship container cable_car subway aircraft wheelchair scooter drone" speed="13.89" length="6.18" shape="445.31,541.49 451.49,541.35"/>
    </edge>
    <edge id=":13318651271_0" function="internal">
        <lane id=":13318651271_0_0" index="0" disallow="tram rail_urban rail rail_electric rail_fast ship container cable_car subway aircraft wheelchair scooter drone" speed="13.89" length="3.06" shape="524.93,636.11 524.31,639.11"/>
    </edge>
    <edge id=":13318651271_1" function="internal">
        <lane id=":13318651271_1_0" index="0" disallow="tram rail_urban rail rail_electric rail_fast ship container cable_car subway aircraft wheelchair scooter drone" speed="13.89" length="3.06" shape="527.45,639.76 528.07,636.77"/>
    </edge>
    <edge id=":13318651276_0" function="internal">
        <lane id=":13318651276_0_0" index="0" disallow="tram rail_urban rail rail_electric rail_fast ship container cable_car subway aircraft wheelchair scooter drone" speed="22.22" length="6.58" shape="402.36,635.49 395.79,635.84"/>
    </edge>
    <edge id=":13318651276_1" function="internal">
        <lane id=":13318651276_1_0" index="0" disallow="tram rail_urban rail rail_electric rail_fast ship container cable_car subway aircraft wheelchair scooter drone" speed="22.22" length="6.58" shape="395.96,639.03 402.53,638.68"/>
    </edge>
    <edge id=":13318651278_0" function="internal">
        <lane id=":13318651278_0_0" index="0" disallow="tram rail_urban rail rail_electric rail_fast ship container cable_car subway aircraft wheelchair scooter drone" speed="11.11" length="4.76" shape="406.32,643.56 404.83,648.07"/>
    </edge>
    <edge id=":13318651278_1" function="internal">
        <lane id=":13318651278_1_0" index="0" disallow="tram rail_urban rail rail_electric rail_fast ship container cable_car subway aircraft wheelchair scooter drone" speed="11.11" length="4.76" shape="407.87,649.07 409.36,644.56"/>
    </edge>
    <edge id=":13318651281_0" function="internal">
        <lane id=":13318651281_0_0" index="0" disallow="tram rail_urban rail rail_electric rail_fast ship container cable_car subway aircraft wheelchair scooter drone" speed="13.89" length="4.36" shape="370.19,749.52 366.02,748.26"/>
    </edge>
    <edge id=":13318651281_1" function="internal">
        <lane id=":13318651281_1_0" index="0" disallow="tram rail_urban rail rail_electric rail_fast ship container cable_car subway aircraft wheelchair scooter drone" speed="13.89" length="4.36" shape="365.09,751.32 369.27,752.58"/>
    </edge>
    <edge id=":13318651285_0" function="internal">
        <lane id=":13318651285_0_0" index="0" disallow="tram rail_urban rail rail_electric rail_fast ship container cable_car subway aircraft wheelchair scooter drone" speed="11.11" length="2.56" shape="349.66,840.22 349.00,842.70"/>
    </edge>
    <edge id=":13318651285_1" function="internal">
        <lane id=":13318651285_1_0" index="0" disallow="tram rail_urban rail rail_electric rail_fast ship container cable_car subway aircraft wheelchair scooter drone" speed="11.11" length="3.07" shape="351.95,844.02 352.75,841.06"/>
    </edge>
    <edge id=":13318651290_0" function="internal">
        <lane id=":13318651290_0_0" index="0" disallow="tram rail_urban rail rail_electric rail_fast ship container cable_car subway aircraft wheelchair scooter drone" speed="11.11" length="5.60" shape="345.47,855.33 343.92,860.71"/>
    </edge>
    <edge id=":13318651290_1" function="internal">
        <lane id=":13318651290_1_0" index="0" disallow="tram rail_urban rail rail_electric rail_fast ship container cable_car subway aircraft wheelchair scooter drone" speed="11.11" length="5.60" shape="346.99,861.59 348.54,856.21"/>
    </edge>
    <edge id=":1389183137_0" function="internal">
        <lane id=":1389183137_0_0" index="0" disallow="tram rail_urban rail rail_electric rail_fast ship container cable_car subway aircraft wheelchair scooter drone" speed="11.11" length="15.75" shape="752.67,405.36 749.76,402.76 746.86,399.92 744.36,396.82 742.67,393.42"/>
    </edge>
    <edge id=":1389183137_1" function="internal">
        <lane id=":1389183137_1_0" index="0" disallow="tram rail_urban rail rail_electric rail_fast ship container cable_car subway aircraft wheelchair scooter drone" speed="7.35" length="17.78" shape="752.67,405.36 748.30,402.38 745.03,402.26 742.87,405.02 741.82,410.64"/>
    </edge>
    <edge id=":1389183137_2" function="internal">
        <lane id=":1389183137_2_0" index="0" disallow="tram rail_urban rail rail_electric rail_fast ship container cable_car subway aircraft wheelchair scooter drone" speed="3.65" length="4.67" shape="752.67,405.36 751.25,405.16 750.41,405.49 750.18,406.35 750.54,407.75"/>
    </edge>
    <edge id=":1389183137_3" function="internal">
        <lane id=":1389183137_3_0" index="0" disallow="tram rail_urban rail rail_electric rail_fast ship container cable_car subway aircraft wheelchair scooter drone" speed="5.43" length="8.98" shape="745.04,410.38 745.58,407.55 746.67,406.17 748.32,406.23 750.54,407.75"/>
    </edge>
    <edge id=":1389183137_4" function="internal">
        <lane id=":1389183137_4_0" index="0" disallow="tram rail_urban rail rail_electric rail_fast ship container cable_car subway aircraft wheelchair scooter drone" speed="8.33" length="17.21" shape="745.04,410.38 745.04,406.29 744.57,401.81 743.75,397.37 742.67,393.42"/>
    </edge>
    <edge id=":1389183137_5" function="internal">
        <lane id=":1389183137_5_0" index="0" disallow="tram rail_urban rail rail_electric rail_fast ship container cable_car subway aircraft wheelchair scooter drone" speed="3.66" length="1.46" shape="745.04,410.38 744.14,409.24"/>
    </edge>
    <edge id=":1389183137_9" function="internal">
        <lane id=":1389183137_9_0" index="0" disallow="tram rail_urban rail rail_electric rail_fast ship container cable_car subway aircraft wheelchair scooter drone" speed="3.66" length="3.27" shape="744.14,409.24 743.30,408.90 742.53,409.36 741.82,410.64"/>
    </edge>
    <edge id=":1389183137_6" function="internal">
        <lane id=":1389183137_6_0" index="0" disallow="tram rail_urban rail rail_electric rail_fast ship container cable_car subway aircraft wheelchair scooter drone" speed="8.33" length="16.45" shape="739.63,394.42 740.68,398.25 741.44,402.44 741.84,406.67 741.82,410.64"/>
    </edge>
    <edge id=":1389183137_7" function="internal">
        <lane id=":1389183137_7_0" index="0" disallow="tram rail_urban rail rail_electric rail_fast ship container cable_car subway aircraft wheelchair scooter drone" speed="11.11" length="3.53" shape="739.63,394.42 741.23,397.56"/>
    </edge>
    <edge id=":1389183137_8" function="internal">
        <lane id=":1389183137_8_0" index="0" disallow="tram rail_urban rail rail_electric rail_fast ship container cable_car subway aircraft wheelchair scooter drone" speed="3.65" length="1.44" shape="739.63,394.42 740.76,395.31"/>
    </edge>
    <edge id=":1389183137_10" function="internal">
        <lane id=":1389183137_10_0" index="0" disallow="tram rail_urban rail rail_electric rail_fast ship container cable_car subway aircraft wheelchair scooter drone" speed="11.11" length="13.85" shape="741.23,397.56 741.46,398.03 744.27,401.61 747.48,404.92 750.54,407.75"/>
    </edge>
    <edge id=":1389183137_11" function="internal">
        <lane id=":1389183137_11_0" index="0" disallow="tram rail_urban rail rail_electric rail_fast ship container cable_car subway aircraft wheelchair scooter drone" speed="3.65" length="3.23" shape="740.76,395.31 741.64,395.44 742.28,394.81 742.67,393.42"/>
    </edge>
    <edge id=":1389183159_0" function="internal">
        <lane id=":1389183159_0_0" index="0" disallow="tram rail_urban rail rail_electric rail_fast ship container cable_car subway aircraft wheelchair scooter drone" speed="3.65" length="4.67" shape="1315.14,448.04 1315.54,446.66 1315.33,445.79 1314.51,445.43 1313.08,445.60"/>
    </edge>
    <edge id=":1389183167_0" function="internal">
        <lane id=":1389183167_0_0" index="0" disallow="tram rail_urban rail rail_electric rail_fast ship container cable_car subway aircraft wheelchair scooter drone" speed="3.65" length="4.67" shape="999.81,475.08 1000.76,474.00 1000.95,473.12 1000.36,472.45 998.99,471.98"/>
    </edge>
    <edge id=":1389183169_0" function="internal">
        <lane id=":1389183169_0_0" index="0" allow="pedestrian delivery bicycle" speed="6.71" length="6.92" shape="959.80,482.34 958.52,482.37 957.16,481.80 955.74,480.62 954.26,478.84"/>
    </edge>
    <edge id=":1389183169_1" function="internal">
        <lane id=":1389183169_1_0" index="0" disallow="tram rail_urban rail rail_electric rail_fast ship container cable_car subway aircraft wheelchair scooter drone" speed="13.89" length="9.91" shape="959.80,482.34 950.20,484.80"/>
    </edge>
    <edge id=":1389183169_2" function="internal">
        <lane id=":1389183169_2_0" index="0" disallow="tram rail_urban rail rail_electric rail_fast ship container cable_car subway aircraft wheelchair scooter drone" speed="13.89" length="9.95" shape="950.99,487.91 960.62,485.44"/>
    </edge>
    <edge id=":1389183169_3" function="internal">
        <lane id=":1389183169_3_0" index="0" allow="pedestrian delivery bicycle" speed="6.67" length="3.82" shape="950.99,487.91 954.32,486.55 954.46,486.39"/>
    </edge>
    <edge id=":1389183169_7" function="internal">
        <lane id=":1389183169_7_0" index="0" allow="pedestrian delivery bicycle" speed="6.67" length="8.53" shape="954.46,486.39 955.98,484.59 955.96,482.02 954.26,478.84"/>
    </edge>
    <edge id=":1389183169_4" function="internal">
        <lane id=":1389183169_4_0" index="0" allow="pedestrian delivery bicycle" speed="4.74" length="5.55" shape="951.67,480.73 952.44,482.16 952.45,483.31 951.70,484.20 950.20,484.80"/>
    </edge>
    <edge id=":1389183169_5" function="internal">
        <lane id=":1389183169_5_0" index="0" allow="pedestrian delivery bicycle" speed="8.22" length="10.75" shape="951.67,480.73 953.86,483.25 956.08,484.87 958.33,485.60 960.62,485.44"/>
    </edge>
    <edge id=":1389183169_6" function="internal">
        <lane id=":1389183169_6_0" index="0" allow="pedestrian delivery bicycle" speed="3.65" length="4.67" shape="951.67,480.73 953.03,481.23 953.91,481.08 954.32,480.28 954.26,478.84"/>
    </edge>
    <edge id=":1389183173_0" function="internal">
        <lane id=":1389183173_0_0" index="0" disallow="tram rail_urban rail rail_electric rail_fast ship container cable_car subway aircraft wheelchair scooter drone" speed="9.44" length="14.49" shape="934.12,488.86 930.10,489.42 926.59,488.93 923.62,487.41 921.17,484.84"/>
    </edge>
    <edge id=":1389183173_1" function="internal">
        <lane id=":1389183173_1_0" index="0" disallow="tram rail_urban rail rail_electric rail_fast ship container cable_car subway aircraft wheelchair scooter drone" speed="13.89" length="18.61" shape="934.12,488.86 916.07,493.41"/>
    </edge>
    <edge id=":1389183173_2" function="internal">
        <lane id=":1389183173_2_0" index="0" disallow="tram rail_urban rail rail_electric rail_fast ship container cable_car subway aircraft wheelchair scooter drone" speed="7.39" length="5.12" shape="934.12,488.86 929.36,490.74"/>
    </edge>
    <edge id=":1389183173_3" function="internal">
        <lane id=":1389183173_3_0" index="0" disallow="tram rail_urban rail rail_electric rail_fast ship container cable_car subway aircraft wheelchair scooter drone" speed="3.65" length="1.44" shape="934.12,488.86 933.15,489.93"/>
    </edge>
    <edge id=":1389183173_16" function="internal">
        <lane id=":1389183173_16_0" index="0" disallow="tram rail_urban rail rail_electric rail_fast ship container cable_car subway aircraft wheelchair scooter drone" speed="7.39" length="12.13" shape="929.36,490.74 929.24,490.78 927.11,493.40 927.74,496.72 931.13,500.73"/>
    </edge>
    <edge id=":1389183173_17" function="internal">
        <lane id=":1389183173_17_0" index="0" disallow="tram rail_urban rail rail_electric rail_fast ship container cable_car subway aircraft wheelchair scooter drone" speed="3.65" length="3.23" shape="933.15,489.93 932.96,490.80 933.54,491.48 934.90,491.96"/>
    </edge>
    <edge id=":1389183173_4" function="internal">
        <lane id=":1389183173_4_0" index="0" disallow="tram rail_urban rail rail_electric rail_fast ship container cable_car subway aircraft wheelchair scooter drone" speed="5.61" length="9.31" shape="933.29,498.37 931.46,496.21 931.12,494.42 932.27,493.00 934.90,491.96"/>
    </edge>
    <edge id=":1389183173_5" function="internal">
        <lane id=":1389183173_5_0" index="0" disallow="tram rail_urban rail rail_electric rail_fast ship container cable_car subway aircraft wheelchair scooter drone" speed="13.89" length="18.19" shape="933.29,498.37 930.24,495.41 926.93,491.87 923.76,488.20 921.17,484.84"/>
    </edge>
    <edge id=":1389183173_6" function="internal">
        <lane id=":1389183173_6_0" index="0" disallow="tram rail_urban rail rail_electric rail_fast ship container cable_car subway aircraft wheelchair scooter drone" speed="11.99" length="18.39" shape="933.29,498.37 929.57,495.89 924.92,494.08 920.15,493.18 916.07,493.41"/>
    </edge>
    <edge id=":1389183173_7" function="internal">
        <lane id=":1389183173_7_0" index="0" disallow="tram rail_urban rail rail_electric rail_fast ship container cable_car subway aircraft wheelchair scooter drone" speed="3.65" length="4.67" shape="933.29,498.37 931.86,498.15 931.03,498.47 930.78,499.33 931.13,500.73"/>
    </edge>
    <edge id=":1389183173_8" function="internal">
        <lane id=":1389183173_8_0" index="0" disallow="tram rail_urban rail rail_electric rail_fast ship container cable_car subway aircraft wheelchair scooter drone" speed="11.05" length="15.53" shape="916.86,496.51 920.59,496.06 924.21,496.61 927.72,498.17 931.13,500.73"/>
    </edge>
    <edge id=":1389183173_9" function="internal">
        <lane id=":1389183173_9_0" index="0" disallow="tram rail_urban rail rail_electric rail_fast ship container cable_car subway aircraft wheelchair scooter drone" speed="13.89" length="18.61" shape="916.86,496.51 934.90,491.96"/>
    </edge>
    <edge id=":1389183173_10" function="internal">
        <lane id=":1389183173_10_0" index="0" disallow="tram rail_urban rail rail_electric rail_fast ship container cable_car subway aircraft wheelchair scooter drone" speed="7.51" length="4.61" shape="916.86,496.51 921.13,494.77"/>
    </edge>
    <edge id=":1389183173_11" function="internal">
        <lane id=":1389183173_11_0" index="0" disallow="tram rail_urban rail rail_electric rail_fast ship container cable_car subway aircraft wheelchair scooter drone" speed="3.65" length="1.44" shape="916.86,496.51 917.83,495.44"/>
    </edge>
    <edge id=":1389183173_18" function="internal">
        <lane id=":1389183173_18_0" index="0" disallow="tram rail_urban rail rail_electric rail_fast ship container cable_car subway aircraft wheelchair scooter drone" speed="7.51" length="11.23" shape="921.13,494.77 923.27,492.25 923.28,488.94 921.17,484.84"/>
    </edge>
    <edge id=":1389183173_19" function="internal">
        <lane id=":1389183173_19_0" index="0" disallow="tram rail_urban rail rail_electric rail_fast ship container cable_car subway aircraft wheelchair scooter drone" speed="3.65" length="3.23" shape="917.83,495.44 918.02,494.57 917.43,493.89 916.07,493.41"/>
    </edge>
    <edge id=":1389183173_12" function="internal">
        <lane id=":1389183173_12_0" index="0" disallow="tram rail_urban rail rail_electric rail_fast ship container cable_car subway aircraft wheelchair scooter drone" speed="5.86" length="9.12" shape="918.56,486.69 919.77,489.05 919.77,490.95 918.53,492.41 916.07,493.41"/>
    </edge>
    <edge id=":1389183173_13" function="internal">
        <lane id=":1389183173_13_0" index="0" disallow="tram rail_urban rail rail_electric rail_fast ship container cable_car subway aircraft wheelchair scooter drone" speed="13.89" length="18.87" shape="918.56,486.69 921.22,490.13 924.54,493.98 928.01,497.69 931.13,500.73"/>
    </edge>
    <edge id=":1389183173_14" function="internal">
        <lane id=":1389183173_14_0" index="0" disallow="tram rail_urban rail rail_electric rail_fast ship container cable_car subway aircraft wheelchair scooter drone" speed="10.45" length="17.91" shape="918.56,486.69 921.55,489.38 925.78,491.33 930.49,492.27 934.90,491.96"/>
    </edge>
    <edge id=":1389183173_15" function="internal">
        <lane id=":1389183173_15_0" index="0" disallow="tram rail_urban rail rail_electric rail_fast ship container cable_car subway aircraft wheelchair scooter drone" speed="3.65" length="4.67" shape="918.56,486.69 919.90,487.21 920.79,487.07 921.21,486.28 921.17,484.84"/>
    </edge>
    <edge id=":1389183174_0" function="internal">
        <lane id=":1389183174_0_0" index="0" disallow="tram rail_urban rail rail_electric rail_fast ship container cable_car subway aircraft wheelchair scooter drone" speed="10.89" length="15.06" shape="870.68,504.85 867.25,505.22 863.81,504.59 860.38,502.96 856.96,500.33"/>
    </edge>
    <edge id=":1389183174_1" function="internal">
        <lane id=":1389183174_1_0" index="0" disallow="tram rail_urban rail rail_electric rail_fast ship container cable_car subway aircraft wheelchair scooter drone" speed="13.89" length="18.05" shape="870.68,504.85 853.12,509.01"/>
    </edge>
    <edge id=":1389183174_2" function="internal">
        <lane id=":1389183174_2_0" index="0" disallow="tram rail_urban rail rail_electric rail_fast ship container cable_car subway aircraft wheelchair scooter drone" speed="7.68" length="4.26" shape="870.68,504.85 866.74,506.47"/>
    </edge>
    <edge id=":1389183174_3" function="internal">
        <lane id=":1389183174_3_0" index="0" disallow="tram rail_urban rail rail_electric rail_fast ship container cable_car subway aircraft wheelchair scooter drone" speed="3.65" length="1.44" shape="870.68,504.85 869.71,505.92"/>
    </edge>
    <edge id=":1389183174_16" function="internal">
        <lane id=":1389183174_16_0" index="0" disallow="tram rail_urban rail rail_electric rail_fast ship container cable_car subway aircraft wheelchair scooter drone" speed="7.68" length="10.80" shape="866.74,506.47 864.56,508.90 864.12,512.14 865.44,516.19"/>
    </edge>
    <edge id=":1389183174_17" function="internal">
        <lane id=":1389183174_17_0" index="0" disallow="tram rail_urban rail rail_electric rail_fast ship container cable_car subway aircraft wheelchair scooter drone" speed="3.65" length="3.23" shape="869.71,505.92 869.52,506.80 870.11,507.47 871.47,507.96"/>
    </edge>
    <edge id=":1389183174_4" function="internal">
        <lane id=":1389183174_4_0" index="0" disallow="tram rail_urban rail rail_electric rail_fast ship container cable_car subway aircraft wheelchair scooter drone" speed="6.10" length="9.06" shape="868.31,514.78 867.52,512.34 867.78,510.39 869.09,508.93 871.47,507.96"/>
    </edge>
    <edge id=":1389183174_5" function="internal">
        <lane id=":1389183174_5_0" index="0" disallow="tram rail_urban rail rail_electric rail_fast ship container cable_car subway aircraft wheelchair scooter drone" speed="13.89" length="18.44" shape="868.31,514.78 866.12,511.11 863.19,507.14 859.98,503.38 856.96,500.33"/>
    </edge>
    <edge id=":1389183174_6" function="internal">
        <lane id=":1389183174_6_0" index="0" disallow="tram rail_urban rail rail_electric rail_fast ship container cable_car subway aircraft wheelchair scooter drone" speed="9.59" length="17.10" shape="868.31,514.78 865.82,511.97 861.93,509.90 857.44,508.83 853.12,509.01"/>
    </edge>
    <edge id=":1389183174_7" function="internal">
        <lane id=":1389183174_7_0" index="0" disallow="tram rail_urban rail rail_electric rail_fast ship container cable_car subway aircraft wheelchair scooter drone" speed="3.65" length="4.67" shape="868.31,514.78 867.06,514.06 866.17,514.05 865.63,514.76 865.44,516.19"/>
    </edge>
    <edge id=":1389183174_8" function="internal">
        <lane id=":1389183174_8_0" index="0" disallow="tram rail_urban rail rail_electric rail_fast ship container cable_car subway aircraft wheelchair scooter drone" speed="8.54" length="13.37" shape="853.82,512.13 857.80,511.66 861.06,512.18 863.60,513.69 865.44,516.19"/>
    </edge>
    <edge id=":1389183174_9" function="internal">
        <lane id=":1389183174_9_0" index="0" disallow="tram rail_urban rail rail_electric rail_fast ship container cable_car subway aircraft wheelchair scooter drone" speed="13.89" length="18.13" shape="853.82,512.13 871.47,507.96"/>
    </edge>
    <edge id=":1389183174_10" function="internal">
        <lane id=":1389183174_10_0" index="0" disallow="tram rail_urban rail rail_electric rail_fast ship container cable_car subway aircraft wheelchair scooter drone" speed="7.38" length="5.35" shape="853.82,512.13 858.85,510.31"/>
    </edge>
    <edge id=":1389183174_11" function="internal">
        <lane id=":1389183174_11_0" index="0" disallow="tram rail_urban rail rail_electric rail_fast ship container cable_car subway aircraft wheelchair scooter drone" speed="3.65" length="1.44" shape="853.82,512.13 854.82,511.09"/>
    </edge>
    <edge id=":1389183174_18" function="internal">
        <lane id=":1389183174_18_0" index="0" disallow="tram rail_urban rail rail_electric rail_fast ship container cable_car subway aircraft wheelchair scooter drone" speed="7.38" length="12.12" shape="858.85,510.31 861.05,507.74 860.42,504.41 856.96,500.33"/>
    </edge>
    <edge id=":1389183174_19" function="internal">
        <lane id=":1389183174_19_0" index="0" disallow="tram rail_urban rail rail_electric rail_fast ship container cable_car subway aircraft wheelchair scooter drone" speed="3.65" length="3.23" shape="854.82,511.09 855.03,510.22 854.47,509.53 853.12,509.01"/>
    </edge>
    <edge id=":1389183174_12" function="internal">
        <lane id=":1389183174_12_0" index="0" disallow="tram rail_urban rail rail_electric rail_fast ship container cable_car subway aircraft wheelchair scooter drone" speed="5.59" length="9.35" shape="854.80,502.69 856.65,504.88 856.99,506.66 855.81,508.04 853.12,509.01"/>
    </edge>
    <edge id=":1389183174_13" function="internal">
        <lane id=":1389183174_13_0" index="0" disallow="tram rail_urban rail rail_electric rail_fast ship container cable_car subway aircraft wheelchair scooter drone" speed="13.89" length="17.26" shape="854.80,502.69 857.71,505.60 860.67,509.03 863.36,512.67 865.44,516.19"/>
    </edge>
    <edge id=":1389183174_14" function="internal">
        <lane id=":1389183174_14_0" index="0" disallow="tram rail_urban rail rail_electric rail_fast ship container cable_car subway aircraft wheelchair scooter drone" speed="11.85" length="17.94" shape="854.80,502.69 858.51,505.23 863.05,507.12 867.63,508.11 871.47,507.96"/>
    </edge>
    <edge id=":1389183174_15" function="internal">
        <lane id=":1389183174_15_0" index="0" disallow="tram rail_urban rail rail_electric rail_fast ship container cable_car subway aircraft wheelchair scooter drone" speed="3.65" length="4.67" shape="854.80,502.69 856.23,502.91 857.06,502.59 857.30,501.73 856.96,500.33"/>
    </edge>
    <edge id=":1389183176_0" function="internal">
        <lane id=":1389183176_0_0" index="0" disallow="tram rail_urban rail rail_electric rail_fast ship container cable_car subway aircraft wheelchair scooter drone" speed="13.89" length="9.18" shape="799.07,520.85 790.05,522.53"/>
    </edge>
    <edge id=":1389183176_1" function="internal">