<?xml version="1.0" encoding="UTF-8"?>

<!-- generated on 2026-03-16T11:18:59.141160+09:00 by Eclipse SUMO netedit 1.26.0
<neteditConfiguration xmlns:xsi="http://www.w3.org/2001/XMLSchema-instance" xsi:noNamespaceSchemaLocation="http://sumo.dlr.de/xsd/neteditConfiguration.xsd">

    <input>
        <sumo-net-file value="D:\huqianqian_git\AIAgent\20260313_OSM_SUMO_OpenDrive\negishi\negishi.net.xml"/>
    </input>

    <output>
        <output-file value="D:\huqianqian_git\AIAgent\20260313_OSM_SUMO_OpenDrive\negishi\negishi.net.xml"/>
    </output>

    <processing>
        <geometry.min-radius.fix.railways value="false"/>
        <geometry.avoid-overlap value="false"/>
        <geometry.max-grade.fix value="false"/>
        <offset.disable-normalization value="true"/>
        <lefthand value="0"/>
    </processing>

    <junctions>
        <no-turnarounds value="true"/>
        <junctions.corner-detail value="5"/>
        <junctions.limit-turn-speed value="5.50"/>
        <rectangular-lane-cut value="0"/>
    </junctions>

    <pedestrian>
        <walkingareas value="0"/>
    </pedestrian>

</neteditConfiguration>
-->

<net version="1.20" junctionCornerDetail="5" limitTurnSpeed="5.50" avoidOverlap="0" xmlns:xsi="http://www.w3.org/2001/XMLSchema-instance" xsi:noNamespaceSchemaLocation="http://sumo.dlr.de/xsd/net_file.xsd">

    <location netOffset="-489025.90,-4231303.73" convBoundary="59.18,49.37,1319.67,1683.43" origBoundary="140.861772,38.218528,140.893767,38.251050" projParameter="+proj=utm +zone=54 +ellps=WGS84 +datum=WGS84 +units=m +no_defs"/>

    <type id="highway.secondary" priority="11" numLanes="1" speed="27.78" disallow="tram rail_urban rail rail_electric rail_fast ship container cable_car subway aircraft wheelchair scooter drone" oneway="0"/>
    <type id="highway.tertiary" priority="10" numLanes="1" speed="22.22" disallow="tram rail_urban rail rail_electric rail_fast ship container cable_car subway aircraft wheelchair scooter drone" oneway="0"/>
    <type id="highway.trunk" priority="13" numLanes="2" speed="27.78" disallow="pedestrian bicycle tram rail_urban rail rail_electric rail_fast ship container cable_car subway aircraft wheelchair scooter drone" oneway="0"/>
    <type id="highway.trunk_link" priority="8" numLanes="1" speed="22.22" disallow="pedestrian bicycle tram rail_urban rail rail_electric rail_fast ship container cable_car subway aircraft wheelchair scooter drone" oneway="0"/>

    <edge id=":10684929047_0" function="internal">
        <lane id=":10684929047_0_0" index="0" disallow="tram rail_urban rail rail_electric rail_fast ship container cable_car subway aircraft wheelchair scooter drone" speed="6.36" length="7.21" shape="1112.32,1415.10 1112.35,1416.29 1113.12,1417.53 1114.62,1418.81 1116.84,1420.14"/>
    </edge>
    <edge id=":10684929047_1" function="internal">
        <lane id=":10684929047_1_0" index="0" disallow="tram rail_urban rail rail_electric rail_fast ship container cable_car subway aircraft wheelchair scooter drone" speed="13.89" length="10.73" shape="1112.32,1415.10 1109.29,1425.42"/>
        <lane id=":10684929047_1_1" index="1" disallow="tram rail_urban rail rail_electric rail_fast ship container cable_car subway aircraft wheelchair scooter drone" speed="13.89" length="10.73" shape="1109.24,1414.24 1106.23,1424.51"/>
    </edge>
    <edge id=":10684929047_3" function="internal">
        <lane id=":10684929047_3_0" index="0" disallow="tram rail_urban rail rail_electric rail_fast ship container cable_car subway aircraft wheelchair scooter drone" speed="3.65" length="1.44" shape="1109.24,1414.24 1108.14,1415.18"/>
    </edge>
    <edge id=":10684929047_8" function="internal">
        <lane id=":10684929047_8_0" index="0" disallow="tram rail_urban rail rail_electric rail_fast ship container cable_car subway aircraft wheelchair scooter drone" speed="3.65" length="3.23" shape="1108.14,1415.18 1107.26,1415.35 1106.60,1414.75 1106.15,1413.37"/>
    </edge>
    <edge id=":10684929047_4" function="internal">
        <lane id=":10684929047_4_0" index="0" disallow="tram rail_urban rail rail_electric rail_fast ship container cable_car subway aircraft wheelchair scooter drone" speed="13.89" length="10.63" shape="1100.09,1422.68 1103.07,1412.51"/>
        <lane id=":10684929047_4_1" index="1" disallow="tram rail_urban rail rail_electric rail_fast ship container cable_car subway aircraft wheelchair scooter drone" speed="13.89" length="10.63" shape="1103.16,1423.60 1106.15,1413.37"/>
    </edge>
    <edge id=":10684929047_6" function="internal">
        <lane id=":10684929047_6_0" index="0" disallow="tram rail_urban rail rail_electric rail_fast ship container cable_car subway aircraft wheelchair scooter drone" speed="7.47" length="2.51" shape="1103.16,1423.60 1104.48,1421.46"/>
    </edge>
    <edge id=":10684929047_7" function="internal">
        <lane id=":10684929047_7_0" index="0" disallow="tram rail_urban rail rail_electric rail_fast ship container cable_car subway aircraft wheelchair scooter drone" speed="3.65" length="1.44" shape="1103.16,1423.60 1104.27,1422.68"/>
    </edge>
    <edge id=":10684929047_9" function="internal">
        <lane id=":10684929047_9_0" index="0" disallow="tram rail_urban rail rail_electric rail_fast ship container cable_car subway aircraft wheelchair scooter drone" speed="7.47" length="11.50" shape="1104.48,1421.46 1104.59,1421.29 1107.09,1420.41 1110.66,1420.96 1115.29,1422.94"/>
    </edge>
    <edge id=":10684929047_10" function="internal">
        <lane id=":10684929047_10_0" index="0" disallow="tram rail_urban rail rail_electric rail_fast ship container cable_car subway aircraft wheelchair scooter drone" speed="3.65" length="3.23" shape="1104.27,1422.68 1105.15,1422.52 1105.80,1423.13 1106.23,1424.51"/>
    </edge>
    <edge id=":10684929048_0" function="internal">
        <lane id=":10684929048_0_0" index="0" disallow="tram rail_urban rail rail_electric rail_fast ship container cable_car subway aircraft wheelchair scooter drone" speed="5.61" length="7.58" shape="1118.70,1414.03 1116.33,1413.00 1114.48,1412.80 1113.16,1413.43 1112.37,1414.90"/>
    </edge>
    <edge id=":10684929048_1" function="internal">
        <lane id=":10684929048_1_0" index="0" disallow="tram rail_urban rail rail_electric rail_fast ship container cable_car subway aircraft wheelchair scooter drone" speed="9.05" length="15.30" shape="1120.24,1411.23 1115.20,1408.19 1111.75,1405.49 1109.89,1403.14 1109.62,1401.12"/>
    </edge>
    <edge id=":10684929048_2" function="internal">
        <lane id=":10684929048_2_0" index="0" disallow="tram rail_urban rail rail_electric rail_fast ship container cable_car subway aircraft wheelchair scooter drone" speed="13.89" length="12.50" shape="1115.77,1402.89 1112.37,1414.90"/>
        <lane id=":10684929048_2_1" index="1" disallow="tram rail_urban rail rail_electric rail_fast ship container cable_car subway aircraft wheelchair scooter drone" speed="13.89" length="12.50" shape="1112.70,1402.01 1109.29,1414.04"/>
    </edge>
    <edge id=":10684929048_4" function="internal">
        <lane id=":10684929048_4_0" index="0" disallow="tram rail_urban rail rail_electric rail_fast ship container cable_car subway aircraft wheelchair scooter drone" speed="3.65" length="1.44" shape="1112.70,1402.01 1111.60,1402.94"/>
    </edge>
    <edge id=":10684929048_8" function="internal">
        <lane id=":10684929048_8_0" index="0" disallow="tram rail_urban rail rail_electric rail_fast ship container cable_car subway aircraft wheelchair scooter drone" speed="3.65" length="3.23" shape="1111.60,1402.94 1110.72,1403.10 1110.06,1402.50 1109.62,1401.12"/>
    </edge>
    <edge id=":10684929048_5" function="internal">
        <lane id=":10684929048_5_0" index="0" disallow="tram rail_urban rail rail_electric rail_fast ship container cable_car subway aircraft wheelchair scooter drone" speed="13.89" length="12.54" shape="1103.13,1412.32 1106.55,1400.24"/>
        <lane id=":10684929048_5_1" index="1" disallow="tram rail_urban rail rail_electric rail_fast ship container cable_car subway aircraft wheelchair scooter drone" speed="13.89" length="12.54" shape="1106.21,1413.18 1109.62,1401.12"/>
    </edge>
    <edge id=":10684929048_7" function="internal">
        <lane id=":10684929048_7_0" index="0" disallow="tram rail_urban rail rail_electric rail_fast ship container cable_car subway aircraft wheelchair scooter drone" speed="3.65" length="1.44" shape="1106.21,1413.18 1107.30,1412.24"/>
    </edge>
    <edge id=":10684929048_9" function="internal">
        <lane id=":10684929048_9_0" index="0" disallow="tram rail_urban rail rail_electric rail_fast ship container cable_car subway aircraft wheelchair scooter drone" speed="3.65" length="3.23" shape="1107.30,1412.24 1108.18,1412.07 1108.84,1412.67 1109.29,1414.04"/>
    </edge>
    <edge id=":10755375883_0" function="internal">
        <lane id=":10755375883_0_0" index="0" disallow="tram rail_urban rail rail_electric rail_fast ship container cable_car subway aircraft wheelchair scooter drone" speed="13.89" length="0.10" shape="1122.99,1423.35 1123.07,1423.39"/>
        <lane id=":10755375883_0_1" index="1" disallow="tram rail_urban rail rail_electric rail_fast ship container cable_car subway aircraft wheelchair scooter drone" speed="13.89" length="0.10" shape="1121.51,1426.19 1121.43,1426.15"/>
    </edge>
    <edge id=":10755375884_0" function="internal">
        <lane id=":10755375884_0_0" index="0" disallow="tram rail_urban rail rail_electric rail_fast ship container cable_car subway aircraft wheelchair scooter drone" speed="13.89" length="0.10" shape="1124.40,1417.17 1124.48,1417.21"/>
        <lane id=":10755375884_0_1" index="1" disallow="tram rail_urban rail rail_electric rail_fast ship container cable_car subway aircraft wheelchair scooter drone" speed="13.89" length="0.10" shape="1126.10,1414.45 1126.02,1414.41"/>
    </edge>
    <edge id=":10758300113_0" function="internal">
        <lane id=":10758300113_0_0" index="0" disallow="tram rail_urban rail rail_electric rail_fast ship container cable_car subway aircraft wheelchair scooter drone" speed="5.91" length="7.35" shape="1209.96,1681.03 1211.37,1680.44 1212.24,1679.23 1212.57,1677.40 1212.35,1674.94"/>
        <lane id=":10758300113_0_1" index="1" disallow="tram rail_urban rail rail_electric rail_fast ship container cable_car subway aircraft wheelchair scooter drone" speed="6.74" length="9.88" shape="1209.96,1681.03 1212.76,1680.21 1214.61,1678.84 1215.53,1676.89 1215.51,1674.39"/>
    </edge>
    <edge id=":10758300114_0" function="internal">
        <lane id=":10758300114_0_0" index="0" disallow="tram rail_urban rail rail_electric rail_fast ship container cable_car subway aircraft wheelchair scooter drone" speed="6.76" length="9.80" shape="1202.37,1676.63 1203.17,1678.96 1204.68,1680.48 1206.87,1681.18 1209.76,1681.06"/>
    </edge>
    <edge id=":10758300123_0" function="internal">
        <lane id=":10758300123_0_0" index="0" disallow="tram rail_urban rail rail_electric rail_fast ship container cable_car subway aircraft wheelchair scooter drone" speed="13.89" length="0.28" shape="1106.40,1435.13 1106.33,1435.38"/>
        <lane id=":10758300123_0_1" index="1" disallow="tram rail_urban rail rail_electric rail_fast ship container cable_car subway aircraft wheelchair scooter drone" speed="13.89" length="0.28" shape="1103.34,1434.21 1103.25,1434.49"/>
    </edge>
    <edge id=":10758300123_2" function="internal">
        <lane id=":10758300123_2_0" index="0" disallow="tram rail_urban rail rail_electric rail_fast ship container cable_car subway aircraft wheelchair scooter drone" speed="13.89" length="0.32" shape="1097.11,1432.70 1097.20,1432.39"/>
        <lane id=":10758300123_2_1" index="1" disallow="tram rail_urban rail rail_electric rail_fast ship container cable_car subway aircraft wheelchair scooter drone" speed="13.89" length="0.32" shape="1100.18,1433.60 1100.27,1433.30"/>
    </edge>
    <edge id=":10758300126_0" function="internal">
        <lane id=":10758300126_0_0" index="0" disallow="tram rail_urban rail rail_electric rail_fast ship container cable_car subway aircraft wheelchair scooter drone" speed="13.89" length="0.16" shape="1120.08,1387.93 1120.05,1388.04"/>
        <lane id=":10758300126_0_1" index="1" disallow="tram rail_urban rail rail_electric rail_fast ship container cable_car subway aircraft wheelchair scooter drone" speed="13.89" length="0.16" shape="1117.03,1386.96 1116.97,1387.16"/>
    </edge>
    <edge id=":10758300126_2" function="internal">
        <lane id=":10758300126_2_0" index="0" disallow="tram rail_urban rail rail_electric rail_fast ship container cable_car subway aircraft wheelchair scooter drone" speed="13.89" length="0.35" shape="1110.82,1385.39 1110.94,1385.00"/>
        <lane id=":10758300126_2_1" index="1" disallow="tram rail_urban rail rail_electric rail_fast ship container cable_car subway aircraft wheelchair scooter drone" speed="13.89" length="0.35" shape="1113.90,1386.27 1113.99,1385.98"/>
    </edge>
    <edge id=":11142939113_0" function="internal">
        <lane id=":11142939113_0_0" index="0" disallow="tram rail_urban rail rail_electric rail_fast ship container cable_car subway aircraft wheelchair scooter drone" speed="16.67" length="5.14" shape="819.07,1270.80 819.92,1269.63 820.12,1268.58 820.28,1267.48 821.00,1266.19"/>
        <lane id=":11142939113_0_1" index="1" disallow="tram rail_urban rail rail_electric rail_fast ship container cable_car subway aircraft wheelchair scooter drone" speed="16.67" length="5.14" shape="819.07,1270.80 820.32,1269.94 821.36,1269.60 822.36,1269.21 823.47,1268.21"/>
    </edge>
    <edge id=":11142939116_0" function="internal">
        <lane id=":11142939116_0_0" index="0" disallow="tram rail_urban rail rail_electric rail_fast ship container cable_car subway aircraft wheelchair scooter drone" speed="16.67" length="8.20" shape="891.43,1144.59 890.42,1146.79 890.07,1148.46 889.71,1150.12 888.68,1152.31"/>
        <lane id=":11142939116_0_1" index="1" disallow="tram rail_urban rail rail_electric rail_fast ship container cable_car subway aircraft wheelchair scooter drone" speed="16.67" length="8.20" shape="888.67,1142.97 887.67,1145.16 887.32,1146.82 886.97,1148.48 885.94,1150.66"/>
        <lane id=":11142939116_0_2" index="2" disallow="tram rail_urban rail rail_electric rail_fast ship container cable_car subway aircraft wheelchair scooter drone" speed="16.67" length="8.20" shape="885.91,1141.34 884.91,1143.53 884.57,1145.18 884.22,1146.83 883.20,1149.00"/>
        <lane id=":11142939116_0_3" index="3" disallow="tram rail_urban rail rail_electric rail_fast ship container cable_car subway aircraft wheelchair scooter drone" speed="16.67" length="8.20" shape="885.91,1141.34 884.49,1143.27 883.20,1144.35 881.91,1145.44 880.46,1147.35"/>
    </edge>
    <edge id=":11142939117_0" function="internal">
        <lane id=":11142939117_0_0" index="0" disallow="tram rail_urban rail rail_electric rail_fast ship container cable_car subway aircraft wheelchair scooter drone" speed="16.67" length="8.21" shape="921.86,1090.62 920.84,1092.81 920.49,1094.47 920.13,1096.12 919.11,1098.31"/>
        <lane id=":11142939117_0_1" index="1" disallow="tram rail_urban rail rail_electric rail_fast ship container cable_car subway aircraft wheelchair scooter drone" speed="16.67" length="8.21" shape="919.12,1088.98 918.10,1091.16 917.74,1092.82 917.39,1094.48 916.37,1096.66"/>
        <lane id=":11142939117_0_2" index="2" disallow="tram rail_urban rail rail_electric rail_fast ship container cable_car subway aircraft wheelchair scooter drone" speed="16.67" length="8.21" shape="919.12,1088.98 917.67,1090.90 916.37,1091.99 915.08,1093.09 913.63,1095.01"/>
    </edge>
    <edge id=":1198759064_0" function="internal">
        <lane id=":1198759064_0_0" index="0" disallow="tram rail_urban rail rail_electric rail_fast ship container cable_car subway aircraft wheelchair scooter drone" speed="11.03" length="17.82" shape="1174.99,1224.24 1171.76,1225.57 1168.94,1228.26 1166.55,1232.29 1164.56,1237.68"/>
    </edge>
    <edge id=":1198759064_1" function="internal">
        <lane id=":1198759064_1_0" index="0" disallow="tram rail_urban rail rail_electric rail_fast ship container cable_car subway aircraft wheelchair scooter drone" speed="22.22" length="24.17" shape="1174.99,1224.24 1169.92,1225.34 1163.21,1226.96 1156.52,1228.67 1151.53,1230.05"/>
    </edge>
    <edge id=":1198759064_2" function="internal">
        <lane id=":1198759064_2_0" index="0" disallow="tram rail_urban rail rail_electric rail_fast ship container cable_car subway aircraft wheelchair scooter drone" speed="7.99" length="4.64" shape="1174.99,1224.24 1170.35,1224.52"/>
    </edge>
    <edge id=":1198759064_3" function="internal">
        <lane id=":1198759064_3_0" index="0" disallow="tram rail_urban rail rail_electric rail_fast ship container cable_car subway aircraft wheelchair scooter drone" speed="3.65" length="1.44" shape="1174.99,1224.24 1173.66,1223.68"/>
    </edge>
    <edge id=":1198759064_18" function="internal">
        <lane id=":1198759064_18_0" index="0" disallow="tram rail_urban rail rail_electric rail_fast ship container cable_car subway aircraft wheelchair scooter drone" speed="7.99" length="14.56" shape="1170.35,1224.52 1169.13,1224.60 1165.47,1223.01 1164.01,1219.48 1164.74,1214.01"/>
    </edge>
    <edge id=":1198759064_19" function="internal">
        <lane id=":1198759064_19_0" index="0" disallow="tram rail_urban rail rail_electric rail_fast ship container cable_car subway aircraft wheelchair scooter drone" speed="3.65" length="3.23" shape="1173.66,1223.68 1173.12,1222.97 1173.36,1222.11 1174.39,1221.10"/>
    </edge>
    <edge id=":1198759064_4" function="internal">
        <lane id=":1198759064_4_0" index="0" disallow="tram rail_urban rail rail_electric rail_fast ship container cable_car subway aircraft wheelchair scooter drone" speed="5.51" length="8.38" shape="1170.90,1215.76 1170.44,1218.48 1170.87,1220.27 1172.18,1221.14 1174.39,1221.10"/>
    </edge>
    <edge id=":1198759064_5" function="internal">
        <lane id=":1198759064_5_0" index="0" disallow="tram rail_urban rail rail_electric rail_fast ship container cable_car subway aircraft wheelchair scooter drone" speed="13.89" length="22.80" shape="1170.90,1215.76 1164.56,1237.68"/>
        <lane id=":1198759064_5_1" index="1" disallow="tram rail_urban rail rail_electric rail_fast ship container cable_car subway aircraft wheelchair scooter drone" speed="13.89" length="22.80" shape="1167.82,1214.89 1161.49,1236.78"/>
    </edge>
    <edge id=":1198759064_7" function="internal">
        <lane id=":1198759064_7_0" index="0" disallow="tram rail_urban rail rail_electric rail_fast ship container cable_car subway aircraft wheelchair scooter drone" speed="13.31" length="5.62" shape="1167.82,1214.89 1165.60,1220.05"/>
    </edge>
    <edge id=":1198759064_8" function="internal">
        <lane id=":1198759064_8_0" index="0" disallow="tram rail_urban rail rail_electric rail_fast ship container cable_car subway aircraft wheelchair scooter drone" speed="3.65" length="1.44" shape="1167.82,1214.89 1166.72,1215.82"/>
    </edge>
    <edge id=":1198759064_20" function="internal">
        <lane id=":1198759064_20_0" index="0" disallow="tram rail_urban rail rail_electric rail_fast ship container cable_car subway aircraft wheelchair scooter drone" speed="13.31" length="17.63" shape="1165.60,1220.05 1162.15,1224.29 1157.45,1227.63 1151.53,1230.05"/>
    </edge>
    <edge id=":1198759064_21" function="internal">
        <lane id=":1198759064_21_0" index="0" disallow="tram rail_urban rail rail_electric rail_fast ship container cable_car subway aircraft wheelchair scooter drone" speed="3.65" length="3.23" shape="1166.72,1215.82 1165.84,1215.99 1165.18,1215.38 1164.74,1214.01"/>
    </edge>
    <edge id=":1198759064_9" function="internal">
        <lane id=":1198759064_9_0" index="0" disallow="tram rail_urban rail rail_electric rail_fast ship container cable_car subway aircraft wheelchair scooter drone" speed="11.90" length="18.47" shape="1150.61,1226.98 1154.21,1225.24 1157.26,1222.35 1159.74,1218.32 1161.67,1213.13"/>
    </edge>
    <edge id=":1198759064_10" function="internal">
        <lane id=":1198759064_10_0" index="0" disallow="tram rail_urban rail rail_electric rail_fast ship container cable_car subway aircraft wheelchair scooter drone" speed="22.22" length="24.50" shape="1150.61,1226.98 1155.65,1225.59 1162.45,1223.85 1169.27,1222.21 1174.39,1221.10"/>
    </edge>
    <edge id=":1198759064_11" function="internal">
        <lane id=":1198759064_11_0" index="0" disallow="tram rail_urban rail rail_electric rail_fast ship container cable_car subway aircraft wheelchair scooter drone" speed="8.02" length="6.43" shape="1150.61,1226.98 1156.94,1225.90"/>
    </edge>
    <edge id=":1198759064_12" function="internal">
        <lane id=":1198759064_12_0" index="0" disallow="tram rail_urban rail rail_electric rail_fast ship container cable_car subway aircraft wheelchair scooter drone" speed="3.65" length="1.44" shape="1150.61,1226.98 1151.99,1227.40"/>
    </edge>
    <edge id=":1198759064_22" function="internal">
        <lane id=":1198759064_22_0" index="0" disallow="tram rail_urban rail rail_electric rail_fast ship container cable_car subway aircraft wheelchair scooter drone" speed="8.02" length="14.11" shape="1156.94,1225.90 1160.87,1227.17 1162.38,1230.80 1161.49,1236.78"/>
    </edge>
    <edge id=":1198759064_23" function="internal">
        <lane id=":1198759064_23_0" index="0" disallow="tram rail_urban rail rail_electric rail_fast ship container cable_car subway aircraft wheelchair scooter drone" speed="3.65" length="3.23" shape="1151.99,1227.40 1152.60,1228.06 1152.45,1228.94 1151.53,1230.05"/>
    </edge>
    <edge id=":1198759064_13" function="internal">
        <lane id=":1198759064_13_0" index="0" disallow="tram rail_urban rail rail_electric rail_fast ship container cable_car subway aircraft wheelchair scooter drone" speed="5.46" length="8.71" shape="1155.35,1234.98 1155.84,1232.17 1155.37,1230.42 1153.93,1229.71 1151.53,1230.05"/>
    </edge>
    <edge id=":1198759064_14" function="internal">
        <lane id=":1198759064_14_0" index="0" disallow="tram rail_urban rail rail_electric rail_fast ship container cable_car subway aircraft wheelchair scooter drone" speed="13.89" length="22.76" shape="1155.35,1234.98 1161.67,1213.13"/>
        <lane id=":1198759064_14_1" index="1" disallow="tram rail_urban rail rail_electric rail_fast ship container cable_car subway aircraft wheelchair scooter drone" speed="13.89" length="22.76" shape="1158.42,1235.88 1164.74,1214.01"/>
    </edge>
    <edge id=":1198759064_16" function="internal">
        <lane id=":1198759064_16_0" index="0" disallow="tram rail_urban rail rail_electric rail_fast ship container cable_car subway aircraft wheelchair scooter drone" speed="12.48" length="5.95" shape="1158.42,1235.88 1160.74,1230.40"/>
    </edge>
    <edge id=":1198759064_17" function="internal">
        <lane id=":1198759064_17_0" index="0" disallow="tram rail_urban rail rail_electric rail_fast ship container cable_car subway aircraft wheelchair scooter drone" speed="3.65" length="1.44" shape="1158.42,1235.88 1159.53,1234.96"/>
    </edge>
    <edge id=":1198759064_24" function="internal">
        <lane id=":1198759064_24_0" index="0" disallow="tram rail_urban rail rail_electric rail_fast ship container cable_car subway aircraft wheelchair scooter drone" speed="12.48" length="17.03" shape="1160.74,1230.40 1160.78,1230.30 1164.23,1225.97 1168.77,1222.90 1174.39,1221.10"/>
    </edge>
    <edge id=":1198759064_25" function="internal">
        <lane id=":1198759064_25_0" index="0" disallow="tram rail_urban rail rail_electric rail_fast ship container cable_car subway aircraft wheelchair scooter drone" speed="3.65" length="3.23" shape="1159.53,1234.96 1160.41,1234.80 1161.06,1235.40 1161.49,1236.78"/>
    </edge>
    <edge id=":1198759065_0" function="internal">
        <lane id=":1198759065_0_0" index="0" disallow="tram rail_urban rail rail_electric rail_fast ship container cable_car subway aircraft wheelchair scooter drone" speed="22.22" length="0.30" shape="1097.92,1253.27 1097.65,1253.40"/>
    </edge>
    <edge id=":1198759065_1" function="internal">
        <lane id=":1198759065_1_0" index="0" disallow="tram rail_urban rail rail_electric rail_fast ship container cable_car subway aircraft wheelchair scooter drone" speed="22.22" length="0.19" shape="1096.30,1250.50 1096.48,1250.42"/>
    </edge>
    <edge id=":1198779539_0" function="internal">
        <lane id=":1198779539_0_0" index="0" disallow="tram rail_urban rail rail_electric rail_fast ship container cable_car subway aircraft wheelchair scooter drone" speed="18.05" length="11.48" shape="931.67,1056.61 934.87,1056.44 937.41,1056.42 939.94,1056.61 943.10,1057.09"/>
    </edge>
    <edge id=":1198779539_1" function="internal">
        <lane id=":1198779539_1_0" index="0" disallow="tram rail_urban rail rail_electric rail_fast ship container cable_car subway aircraft wheelchair scooter drone" speed="6.54" length="13.02" shape="931.67,1056.61 935.36,1056.93 937.31,1058.43 937.51,1061.11 935.97,1064.98"/>
        <lane id=":1198779539_1_1" index="1" disallow="tram rail_urban rail rail_electric rail_fast ship container cable_car subway aircraft wheelchair scooter drone" speed="5.64" length="9.28" shape="931.67,1056.61 933.77,1056.92 934.72,1058.16 934.52,1060.34 933.16,1063.45"/>
    </edge>
    <edge id=":1198779539_3" function="internal">
        <lane id=":1198779539_3_0" index="0" disallow="tram rail_urban rail rail_electric rail_fast ship container cable_car subway aircraft wheelchair scooter drone" speed="3.65" length="4.67" shape="931.67,1056.61 932.92,1057.34 933.36,1058.11 933.01,1058.93 931.86,1059.81"/>
    </edge>
    <edge id=":1198779616_0" function="internal">
        <lane id=":1198779616_0_0" index="0" disallow="tram rail_urban rail rail_electric rail_fast ship container cable_car subway aircraft wheelchair scooter drone" speed="6.78" length="10.30" shape="868.21,1051.78 865.94,1051.40 863.98,1052.17 862.31,1054.08 860.95,1057.15"/>
    </edge>
    <edge id=":1198779616_1" function="internal">
        <lane id=":1198779616_1_0" index="0" disallow="tram rail_urban rail rail_electric rail_fast ship container cable_car subway aircraft wheelchair scooter drone" speed="7.80" length="13.63" shape="868.21,1051.78 864.95,1049.93 863.08,1047.48 862.62,1044.46 863.55,1040.84"/>
    </edge>
    <edge id=":1198779616_2" function="internal">
        <lane id=":1198779616_2_0" index="0" disallow="tram rail_urban rail rail_electric rail_fast ship container cable_car subway aircraft wheelchair scooter drone" speed="3.65" length="4.67" shape="868.21,1051.78 867.39,1050.60 867.31,1049.70 867.97,1049.11 869.38,1048.80"/>
    </edge>
    <edge id=":1198779616_3" function="internal">
        <lane id=":1198779616_3_0" index="0" disallow="tram rail_urban rail rail_electric rail_fast ship container cable_car subway aircraft wheelchair scooter drone" speed="6.25" length="8.39" shape="866.50,1042.07 865.93,1044.29 866.22,1046.16 867.37,1047.66 869.38,1048.80"/>
    </edge>
    <edge id=":1198779616_4" function="internal">
        <lane id=":1198779616_4_0" index="0" disallow="tram rail_urban rail rail_electric rail_fast ship container cable_car subway aircraft wheelchair scooter drone" speed="22.22" length="16.06" shape="866.50,1042.07 860.95,1057.15"/>
    </edge>
    <edge id=":1198779616_5" function="internal">
        <lane id=":1198779616_5_0" index="0" disallow="tram rail_urban rail rail_electric rail_fast ship container cable_car subway aircraft wheelchair scooter drone" speed="3.65" length="1.44" shape="866.50,1042.07 865.30,1042.87"/>
    </edge>
    <edge id=":1198779616_12" function="internal">
        <lane id=":1198779616_12_0" index="0" disallow="tram rail_urban rail rail_electric rail_fast ship container cable_car subway aircraft wheelchair scooter drone" speed="3.65" length="3.23" shape="865.30,1042.87 864.41,1042.93 863.83,1042.25 863.55,1040.84"/>
    </edge>
    <edge id=":1198779616_6" function="internal">
        <lane id=":1198779616_6_0" index="0" disallow="tram rail_urban rail rail_electric rail_fast ship container cable_car subway aircraft wheelchair scooter drone" speed="18.05" length="16.02" shape="853.59,1053.23 856.47,1050.56 859.27,1047.54 861.71,1044.26 863.55,1040.84"/>
    </edge>
    <edge id=":1198779616_7" function="internal">
        <lane id=":1198779616_7_0" index="0" disallow="tram rail_urban rail rail_electric rail_fast ship container cable_car subway aircraft wheelchair scooter drone" speed="10.94" length="17.25" shape="853.59,1053.23 857.76,1050.21 861.78,1048.47 865.66,1048.00 869.38,1048.80"/>
    </edge>
    <edge id=":1198779616_8" function="internal">
        <lane id=":1198779616_8_0" index="0" disallow="tram rail_urban rail rail_electric rail_fast ship container cable_car subway aircraft wheelchair scooter drone" speed="6.77" length="17.61" shape="853.59,1053.23 858.60,1049.55 861.50,1048.98 862.29,1051.51 860.95,1057.15"/>
    </edge>
    <edge id=":1198779616_9" function="internal">
        <lane id=":1198779616_9_0" index="0" disallow="tram rail_urban rail rail_electric rail_fast ship container cable_car subway aircraft wheelchair scooter drone" speed="22.22" length="16.30" shape="857.92,1056.13 863.55,1040.84"/>
    </edge>
    <edge id=":1198779616_10" function="internal">
        <lane id=":1198779616_10_0" index="0" disallow="tram rail_urban rail rail_electric rail_fast ship container cable_car subway aircraft wheelchair scooter drone" speed="8.22" length="5.49" shape="857.92,1056.13 859.94,1051.75 860.40,1051.27"/>
    </edge>
    <edge id=":1198779616_11" function="internal">