<?xml version="1.0" encoding="UTF-8"?>

<!-- generated on 2026-02-24T13:09:41.396693+09:00 by Eclipse SUMO netconvert 1.26.0
<netconvertConfiguration xmlns:xsi="http://www.w3.org/2001/XMLSchema-instance" xsi:noNamespaceSchemaLocation="http://sumo.dlr.de/xsd/netconvertConfiguration.xsd">

    <input>
        <sumo-net-file value="D:\Data\SUMO_Data\negishi.net.xml"/>
    </input>

    <output>
        <opendrive-output value="D:\Data\SUMO_Data\negishi.xodr"/>
    </output>

    <processing>
        <geometry.min-radius.fix.railways value="false"/>
        <geometry.avoid-overlap value="false"/>
        <geometry.max-grade.fix value="false"/>
        <offset.disable-normalization value="true"/>
        <lefthand value="0"/>
    </processing>

    <junctions>
        <no-turnarounds value="true"/>
        <junctions.corner-detail value="5"/>
        <junctions.limit-turn-speed value="5.50"/>
    </junctions>

    <pedestrian>
        <walkingareas value="0"/>
    </pedestrian>

</netconvertConfiguration>
-->

<OpenDRIVE>
    <header revMajor="1" revMinor="4" name="" version="1.00" date="Tue Feb 24 13:09:41 2026" north="3607.41" south="0.00" east="1985.43" west="-263.77">
        <geoReference>
 <![CDATA[
 +proj=utm +zone=54 +ellps=WGS84 +datum=WGS84 +units=m +no_defs
]]>
        </geoReference>
        <offset x="488717.79" y="4230069.40" z="-0.00" hdg="0"/>
    </header>
    <road name="" length="0.20000000" id="2560" junction="-1">
        <link>
            <predecessor elementType="junction" elementId="1"/>
            <successor elementType="junction" elementId="2"/>
        </link>
        <type s="0" type="town"/>
        <planView>
            <geometry s="0.00000000" x="1171.99700130" y="2278.50719688" hdg="1.96558745" length="0.20000000">
                <line/>
            </geometry>
        </planView>
        <elevationProfile>
            <elevation s="0" a="0.00" b="0" c="0" d="0"/>
        </elevationProfile>
        <lateralProfile/>
        <lanes>
            <laneSection s="0">
                <center>
                    <lane id="0" type="none" level="true">
                        <link/>
                        <roadMark sOffset="0" type="solid" weight="standard" color="standard" width="0.13"/>
                    </lane>
                </center>
                <right>
                    <lane id="-1" type="driving" level="true">
                        <link/>
                        <width sOffset="0" a="3.20" b="0" c="0" d="0"/>
                        <roadMark sOffset="0" type="solid" weight="standard" color="standard" width="0.13"/>
                        <speed sOffset="0" max="22.22"/>
                    </lane>
                 </right>
            </laneSection>
        </lanes>
        <objects/>
        <signals/>
    </road>
    <road name="" length="300.51845041" id="2561" junction="-1">
        <link>
            <predecessor elementType="junction" elementId="3"/>
            <successor elementType="junction" elementId="1"/>
        </link>
        <type s="0" type="town"/>
        <planView>
            <geometry s="0.00000000" x="1160.92113784" y="1972.60024304" hdg="1.51772121" length="20.14801465">
                <line/>
            </geometry>
            <geometry s="20.14801465" x="1161.98999407" y="1992.71988620" hdg="1.51772121" length="10.39314986">
                <paramPoly3 aU="0.00000000" bU="7.79484833" cU="7.79476281" dU="-5.19652745" aV="0.00000000" bV="0.00000000" cV="0.12391646" dV="-0.09252302" pRange="normalized"/>
            </geometry>
            <geometry s="30.54116452" x="1162.51000001" y="2003.10000026" hdg="1.51390636" length="42.70706487">
                <line/>
            </geometry>
            <geometry s="73.24822939" x="1164.93829331" y="2045.73797374" hdg="1.51390636" length="22.21947264">
                <paramPoly3 aU="0.00000000" bU="16.66455383" cU="16.66365547" dU="-11.10939907" aV="0.00000000" bV="0.00000000" cV="0.31590208" dV="-0.15331269" pRange="normalized"/>
            </geometry>
            <geometry s="95.46770203" x="1166.03931269" y="2067.93008313" hdg="1.52421981" length="15.40367788">
                <paramPoly3 aU="0.00000000" bU="11.55274968" cU="11.55242383" dU="-7.70165111" aV="0.00000000" bV="0.00000000" cV="0.15029287" dV="-0.08372497" pRange="normalized"/>
            </geometry>
            <geometry s="110.87137991" x="1166.69000000" y="2083.31999996" hdg="1.52849680" length="16.06460881">
                <paramPoly3 aU="0.00000000" bU="12.04829893" cU="12.05024371" dU="-8.03414408" aV="0.00000000" bV="-0.00000000" cV="0.21441104" dV="-0.21509783" pRange="normalized"/>
            </geometry>
            <geometry s="126.93598871" x="1167.37000000" y="2099.37000000" hdg="1.51052886" length="100.61266570">
                <line/>
            </geometry>
            <geometry s="227.54865442" x="1173.43000000" y="2199.80000000" hdg="1.51052886" length="3.41059905">
                <paramPoly3 aU="0.00000000" bU="2.55759897" cU="2.54559560" dU="-1.69706377" aV="0.00000000" bV="0.00000000" cV="-0.49470377" dV="0.32955856" pRange="normalized"/>
            </geometry>
            <geometry s="230.95925347" x="1173.80000000" y="2203.19000000" hdg="1.51024271" length="15.22280110">
                <paramPoly3 aU="0.00000000" bU="11.41695395" cU="11.41712176" dU="-7.61235573" aV="0.00000000" bV="0.00000000" cV="0.23860702" dV="-0.07443649" pRange="normalized"/>
            </geometry>
            <geometry s="246.18205457" x="1174.55729738" y="2218.39375650" hdg="1.53248380" length="22.21598938">
                <paramPoly3 aU="0.00000000" bU="16.66189436" cU="16.66171743" dU="-11.10843712" aV="0.00000000" bV="0.00000000" cV="0.27311303" dV="-0.09872323" pRange="normalized"/>
            </geometry>
            <geometry s="268.39804395" x="1175.23394683" y="2240.59930858" hdg="1.54749204" length="13.09206315">
                <paramPoly3 aU="0.00000000" bU="9.81862961" cU="9.82317293" dU="-6.55126231" aV="0.00000000" bV="-0.00000000" cV="0.09489675" dV="0.06413132" pRange="normalized"/>
            </geometry>
            <geometry s="281.49010709" x="1175.38000000" y="2253.69000000" hdg="1.58642660" length="15.34947831">
                <paramPoly3 aU="0.00000000" bU="11.49102313" cU="11.77812111" dU="-7.95179287" aV="-0.00000000" bV="-0.00000000" cV="-1.55294332" dV="1.90358145" pRange="normalized"/>
            </geometry>
            <geometry s="296.83958540" x="1174.79000000" y="2269.00000000" hdg="1.81510068" length="3.67886500">
                <line/>
            </geometry>
        </planView>
        <elevationProfile>
            <elevation s="0" a="0.00" b="0" c="0" d="0"/>
        </elevationProfile>
        <lateralProfile/>
        <lanes>
            <laneSection s="0">
                <center>
                    <lane id="0" type="none" level="true">
                        <link/>
                        <roadMark sOffset="0" type="solid" weight="standard" color="standard" width="0.13"/>
                    </lane>
                </center>
                <right>
                    <lane id="-1" type="driving" level="true">
                        <link/>
                        <width sOffset="0" a="3.20" b="0" c="0" d="0"/>
                        <roadMark sOffset="0" type="solid" weight="standard" color="standard" width="0.13"/>
                        <speed sOffset="0" max="22.22"/>
                    </lane>
                 </right>
            </laneSection>
        </lanes>
        <objects/>
        <signals/>
    </road>
    <road name="" length="0.20000000" id="2562" junction="-1">
        <link>
            <predecessor elementType="junction" elementId="4"/>
            <successor elementType="junction" elementId="2"/>
        </link>
        <type s="0" type="town"/>
        <planView>
            <geometry s="0.00000000" x="1175.96867786" y="2284.25089718" hdg="-2.76686497" length="0.20000000">
                <line/>
            </geometry>
        </planView>
        <elevationProfile>
            <elevation s="0" a="0.00" b="0" c="0" d="0"/>
        </elevationProfile>
        <lateralProfile/>
        <lanes>
            <laneSection s="0">
                <center>
                    <lane id="0" type="none" level="true">
                        <link/>
                        <roadMark sOffset="0" type="solid" weight="standard" color="standard" width="0.13"/>
                    </lane>
                </center>
                <right>
                    <lane id="-1" type="driving" level="true">
                        <link/>
                        <width sOffset="0" a="3.20" b="0" c="0" d="0"/>
                        <roadMark sOffset="0" type="solid" weight="standard" color="standard" width="0.13"/>
                        <speed sOffset="0" max="22.22"/>
                    </lane>
                 </right>
            </laneSection>
        </lanes>
        <objects/>
        <signals/>
    </road>
    <road name="" length="57.94447370" id="2563" junction="-1">
        <link>
            <predecessor elementType="junction" elementId="5"/>
            <successor elementType="junction" elementId="4"/>
        </link>
        <type s="0" type="town"/>
        <planView>
            <geometry s="0.00000000" x="1235.81774889" y="2292.78251115" hdg="3.08158418" length="2.79339962">
                <line/>
            </geometry>
            <geometry s="2.79339962" x="1233.02937730" y="2292.95003822" hdg="3.08158418" length="10.51072911">
                <paramPoly3 aU="0.00000000" bU="7.88212132" cU="7.89286707" dU="-5.26551179" aV="-0.00000000" bV="-0.00000000" cV="-0.47165460" dV="0.45193659" pRange="normalized"/>
            </geometry>
            <geometry s="13.30412873" x="1222.53999996" y="2293.60000000" hdg="3.13394179" length="18.27052964">
                <paramPoly3 aU="0.00000000" bU="13.69879668" cU="13.74465963" dU="-9.18728061" aV="-0.00000000" bV="-0.00000000" cV="0.30134913" dV="0.26834164" pRange="normalized"/>
            </geometry>
            <geometry s="31.57465837" x="1204.28000000" y="2293.17000000" hdg="-3.04629924" length="9.62779965">
                <paramPoly3 aU="-0.00000000" bU="7.21302338" cU="7.08298306" dU="-4.76819274" aV="0.00000000" bV="-0.00000000" cV="2.52085787" dV="-1.21148161" pRange="normalized"/>
            </geometry>
            <geometry s="41.20245802" x="1194.92000000" y="2290.96000000" hdg="-2.84993841" length="15.20727877">
                <paramPoly3 aU="-0.00000000" bU="11.40344215" cU="11.40949405" dU="-7.61921083" aV="0.00000000" bV="0.00000000" cV="0.78601606" dV="-0.21134041" pRange="normalized"/>
            </geometry>
            <geometry s="56.40973679" x="1180.53315328" y="2286.04083499" hdg="-2.76758855" length="1.53473691">
                <line/>
            </geometry>
        </planView>
        <elevationProfile>
            <elevation s="0" a="0.00" b="0" c="0" d="0"/>
        </elevationProfile>
        <lateralProfile/>
        <lanes>
            <laneSection s="0">
                <center>
                    <lane id="0" type="none" level="true">
                        <link/>
                        <roadMark sOffset="0" type="solid" weight="standard" color="standard" width="0.13"/>
                    </lane>
                </center>
                <right>
                    <lane id="-1" type="driving" level="true">
                        <link/>
                        <width sOffset="0" a="3.20" b="0" c="0" d="0"/>
                        <roadMark sOffset="0" type="solid" weight="standard" color="standard" width="0.13"/>
                        <speed sOffset="0" max="22.22"/>
                    </lane>
                 </right>
            </laneSection>
        </lanes>
        <objects/>
        <signals/>
    </road>
    <road name="" length="0.20000000" id="2564" junction="-1">
        <link>
            <predecessor elementType="junction" elementId="6"/>
            <successor elementType="junction" elementId="5"/>
        </link>
        <type s="0" type="town"/>
        <planView>
            <geometry s="0.00000000" x="1242.13832958" y="2292.40191942" hdg="3.08106063" length="0.20000000">
                <line/>
            </geometry>
        </planView>
        <elevationProfile>
            <elevation s="0" a="0.00" b="0" c="0" d="0"/>
        </elevationProfile>
        <lateralProfile/>
        <lanes>
            <laneSection s="0">
                <center>
                    <lane id="0" type="none" level="true">
                        <link/>
                        <roadMark sOffset="0" type="solid" weight="standard" color="standard" width="0.13"/>
                    </lane>
                </center>
                <right>
                    <lane id="-1" type="driving" level="true">
                        <link/>
                        <width sOffset="0" a="3.20" b="0" c="0" d="0"/>
                        <roadMark sOffset="0" type="solid" weight="standard" color="standard" width="0.13"/>
                        <speed sOffset="0" max="22.22"/>
                    </lane>
                 </right>
            </laneSection>
        </lanes>
        <objects/>
        <signals/>
    </road>
    <road name="" length="0.20000000" id="2565" junction="-1">
        <link>
            <predecessor elementType="junction" elementId="7"/>
            <successor elementType="junction" elementId="8"/>
        </link>
        <type s="0" type="town"/>
        <planView>
            <geometry s="0.00000000" x="1308.42594213" y="2648.64338048" hdg="-2.59600333" length="0.20000000">
                <line/>
            </geometry>
        </planView>
        <elevationProfile>
            <elevation s="0" a="0.00" b="0" c="0" d="0"/>
        </elevationProfile>
        <lateralProfile/>
        <lanes>
            <laneSection s="0">
                <center>
                    <lane id="0" type="none" level="true">
                        <link/>
                        <roadMark sOffset="0" type="solid" weight="standard" color="standard" width="0.13"/>
                    </lane>
                </center>
                <right>
                    <lane id="-1" type="driving" level="true">
                        <link/>
                        <width sOffset="0" a="3.20" b="0" c="0" d="0"/>
                        <roadMark sOffset="0" type="solid" weight="standard" color="standard" width="0.13"/>
                        <speed sOffset="0" max="13.89"/>
                    </lane>
                 </right>
            </laneSection>
        </lanes>
        <objects/>
        <signals/>
    </road>
    <road name="" length="0.20000000" id="2566" junction="-1">
        <link>
            <predecessor elementType="junction" elementId="9"/>
            <successor elementType="junction" elementId="7"/>
        </link>
        <type s="0" type="town"/>
        <planView>
            <geometry s="0.00000000" x="1317.54653039" y="2654.18187251" hdg="-2.59564609" length="0.20000000">
                <line/>
            </geometry>
        </planView>
        <elevationProfile>
            <elevation s="0" a="0.00" b="0" c="0" d="0"/>
        </elevationProfile>
        <lateralProfile/>
        <lanes>
            <laneSection s="0">
                <center>
                    <lane id="0" type="none" level="true">
                        <link/>
                        <roadMark sOffset="0" type="solid" weight="standard" color="standard" width="0.13"/>
                    </lane>
                </center>
                <right>
                    <lane id="-1" type="driving" level="true">
                        <link/>
                        <width sOffset="0" a="3.20" b="0" c="0" d="0"/>
                        <roadMark sOffset="0" type="solid" weight="standard" color="standard" width="0.13"/>
                        <speed sOffset="0" max="13.89"/>
                    </lane>
                 </right>
            </laneSection>
        </lanes>
        <objects/>
        <signals/>
    </road>
    <road name="" length="80.17414067" id="2567" junction="-1">
        <link>
            <predecessor elementType="junction" elementId="10"/>
            <successor elementType="junction" elementId="9"/>
        </link>
        <type s="0" type="town"/>
        <planView>
            <geometry s="0.00000000" x="1346.24000000" y="2737.27000000" hdg="-1.91594213" length="62.45310080">
                <line/>
            </geometry>
            <geometry s="62.45310080" x="1325.11000000" y="2678.50000000" hdg="-1.91594213" length="12.15332890">
                <paramPoly3 aU="-0.00000000" bU="9.07192510" cU="7.51715968" dU="-5.01172207" aV="0.00000000" bV="-0.00000000" cV="10.38695715" dV="-6.88332007" pRange="normalized"/>
            </geometry>
            <geometry s="74.60642970" x="1324.49000000" y="2666.42000000" hdg="-1.90227822" length="5.56771096">
                <line/>
            </geometry>
        </planView>
        <elevationProfile>
            <elevation s="0" a="0.00" b="0" c="0" d="0"/>
        </elevationProfile>
        <lateralProfile/>
        <lanes>
            <laneSection s="0">
                <center>
                    <lane id="0" type="none" level="true">
                        <link/>
                        <roadMark sOffset="0" type="solid" weight="standard" color="standard" width="0.13"/>
                    </lane>
                </center>
                <right>
                    <lane id="-1" type="driving" level="true">
                        <link/>
                        <width sOffset="0" a="3.20" b="0" c="0" d="0"/>
                        <roadMark sOffset="0" type="solid" weight="standard" color="standard" width="0.13"/>
                        <speed sOffset="0" max="13.89"/>
                    </lane>
                 </right>
            </laneSection>
        </lanes>
        <objects/>
        <signals/>
    </road>
    <road name="" length="8.69168288" id="2568" junction="-1">
        <link>
            <predecessor elementType="junction" elementId="8"/>
            <successor elementType="junction" elementId="11"/>
        </link>
        <type s="0" type="town"/>
        <planView>
            <geometry s="0.00000000" x="1309.48361880" y="2648.96646098" hdg="-2.18019206" length="8.69168288">
                <line/>
            </geometry>
        </planView>
        <elevationProfile>
            <elevation s="0" a="0.00" b="0" c="0" d="0"/>
        </elevationProfile>
        <lateralProfile/>
        <lanes>
            <laneSection s="0">
                <center>
                    <lane id="0" type="none" level="true">
                        <link/>
                        <roadMark sOffset="0" type="solid" weight="standard" color="standard" width="0.13"/>
                    </lane>
                </center>
                <right>
                    <lane id="-1" type="driving" level="true">
                        <link/>
                        <width sOffset="0" a="3.20" b="0" c="0" d="0"/>
                        <roadMark sOffset="0" type="solid" weight="standard" color="standard" width="0.13"/>
                        <speed sOffset="0" max="13.89"/>
                    </lane>
                 </right>
            </laneSection>
        </lanes>
        <objects/>
        <signals/>
    </road>
    <road name="" length="0.20000000" id="2569" junction="-1">
        <link>
            <predecessor elementType="junction" elementId="12"/>
            <successor elementType="junction" elementId="13"/>
        </link>
        <type s="0" type="town"/>
        <planView>
            <geometry s="0.00000000" x="1591.80900712" y="2133.14434291" hdg="0.27328968" length="0.20000000">
                <line/>
            </geometry>
        </planView>
        <elevationProfile>
            <elevation s="0" a="0.00" b="0" c="0" d="0"/>
        </elevationProfile>
        <lateralProfile/>
        <lanes>
            <laneSection s="0">
                <center>
                    <lane id="0" type="none" level="true">
                        <link/>
                        <roadMark sOffset="0" type="solid" weight="standard" color="standard" width="0.13"/>
                    </lane>
                </center>
                <right>
                    <lane id="-1" type="driving" level="true">
                        <link/>
                        <width sOffset="0" a="3.20" b="0" c="0" d="0"/>
                        <roadMark sOffset="0" type="solid" weight="standard" color="standard" width="0.13"/>
                        <speed sOffset="0" max="13.89"/>
                    </lane>
                 </right>
            </laneSection>
        </lanes>
        <objects/>
        <signals/>
    </road>
    <road name="" length="408.91198434" id="2570" junction="-1">
        <link>
            <predecessor elementType="junction" elementId="14"/>
            <successor elementType="junction" elementId="12"/>
        </link>
        <type s="0" type="town"/>
        <planView>
            <geometry s="0.00000000" x="1380.96845203" y="2482.06938403" hdg="-1.57658777" length="0.20000000">
                <line/>
            </geometry>
            <geometry s="0.20000000" x="1380.96729375" y="2481.86938738" hdg="-1.57658777" length="13.12640542">
                <paramPoly3 aU="-0.00000000" bU="9.79590653" cU="9.71059696" dU="-6.78584457" aV="0.00000000" bV="-0.00000000" cV="4.70986709" dV="-1.74675902" pRange="normalized"/>
            </geometry>
            <geometry s="13.32640542" x="1383.85668159" y="2469.13178122" hdg="-1.13579849" length="36.53613806">
                <line/>
            </geometry>
            <geometry s="49.86254348" x="1399.25331841" y="2435.99821878" hdg="-1.13579849" length="13.88785218">
                <paramPoly3 aU="0.00000000" bU="10.41546634" cU="10.41546554" dU="-6.94635445" aV="0.00000000" bV="0.00000000" cV="-0.41166606" dV="0.13727558" pRange="normalized"/>
            </geometry>
            <geometry s="63.75039567" x="1404.85555972" y="2423.29106833" hdg="-1.17531785" length="35.35078086">
                <line/>
            </geometry>
            <geometry s="99.10117653" x="1418.47444028" y="2390.66893167" hdg="-1.17531785" length="13.87738938">
                <paramPoly3 aU="0.00000000" bU="10.40556363" cU="10.40553631" dU="-6.95291202" aV="0.00000000" bV="-0.00000000" cV="0.99709796" dV="-0.33312677" pRange="normalized"/>
            </geometry>
            <geometry s="112.97856591" x="1424.42602494" y="2378.13621966" hdg="-1.07956740" length="30.05650612">
                <line/>
            </geometry>
            <geometry s="143.03507203" x="1438.60397506" y="2351.63378034" hdg="-1.07956740" length="13.88993716">
                <paramPoly3 aU="0.00000000" bU="10.41744050" cU="10.41744049" dU="-6.94503967" aV="0.00000000" bV="0.00000000" cV="0.07042077" dV="-0.02347386" pRange="normalized"/>
            </geometry>
            <geometry s="156.92500919" x="1445.19734571" y="2339.40850490" hdg="-1.07280753" length="34.30331904">
                <line/>
            </geometry>
            <geometry s="191.22832823" x="1461.58265429" y="2309.27149510" hdg="-1.07280753" length="13.88313588">
                <paramPoly3 aU="0.00000000" bU="10.41100169" cU="10.41099358" dU="-6.94931870" aV="0.00000000" bV="-0.00000000" cV="0.73579903" dV="-0.24557214" pRange="normalized"/>
            </geometry>
            <geometry s="205.11146411" x="1468.63975739" y="2297.31788588" hdg="-1.00216176" length="60.57860077">
                <line/>
            </geometry>
            <geometry s="265.69006488" x="1501.26024261" y="2246.27211412" hdg="-1.00216176" length="13.88932606">
                <paramPoly3 aU="0.00000000" bU="10.41686185" cU="10.41686177" dU="-6.94542530" aV="0.00000000" bV="0.00000000" cV="0.23061126" dV="-0.07687984" pRange="normalized"/>
            </geometry>
            <geometry s="279.57939095" x="1508.86838086" y="2234.65210137" hdg="-0.98002440" length="37.18698993">
                <line/>
            </geometry>
            <geometry s="316.76638087" x="1529.58161914" y="2203.76789863" hdg="-0.98002440" length="13.88895654">
                <paramPoly3 aU="0.00000000" bU="10.41662950" cU="10.41458818" dU="-6.94353891" aV="0.00000000" bV="0.00000000" cV="-0.36541434" dV="0.18586928" pRange="normalized"/>
            </geometry>
            <geometry s="330.65533741" x="1537.16797378" y="2192.13402217" hdg="-0.99665443" length="5.57413362">
                <paramPoly3 aU="0.00000000" bU="4.18055210" cU="4.17996249" dU="-2.78668231" aV="0.00000000" bV="0.00000000" cV="-0.18619783" dV="0.13477623" pRange="normalized"/>
            </geometry>
            <geometry s="336.22947103" x="1540.15202622" y="2187.42597783" hdg="-0.98901588" length="13.88651287">
                <paramPoly3 aU="0.00000000" bU="10.41459097" cU="10.41844921" dU="-6.94723702" aV="0.00000000" bV="-0.00000000" cV="-0.03458863" dV="0.12858431" pRange="normalized"/>
            </geometry>
            <geometry s="350.11598391" x="1547.86097856" y="2175.87624111" hdg="-0.95861387" length="27.92810138">
                <line/>
            </geometry>
            <geometry s="378.04408529" x="1563.91000000" y="2153.02000000" hdg="-0.95861387" length="12.49322714">
                <paramPoly3 aU="0.00000000" bU="9.36740092" cU="9.40193326" dU="-6.28069444" aV="0.00000000" bV="0.00000000" cV="-0.31984688" dV="0.49499620" pRange="normalized"/>
            </geometry>
            <geometry s="390.53731243" x="1571.23000000" y="2142.90000000" hdg="-0.86825303" length="8.12180950">
                <paramPoly3 aU="0.00000000" bU="6.08128379" cU="6.10589334" dU="-4.13494038" aV="0.00000000" bV="0.00000000" cV="1.33749911" dV="-0.38498491" pRange="normalized"/>
            </geometry>
            <geometry s="398.65912193" x="1577.16000000" y="2137.37000000" hdg="-0.61561989" length="7.66065049">
                <paramPoly3 aU="0.00000000" bU="5.70887467" cU="6.12004781" dU="-4.29559651" aV="0.00000000" bV="0.00000000" cV="0.63200032" dV="0.45841237" pRange="normalized"/>
            </geometry>
            <geometry s="406.31977242" x="1583.94000000" y="2133.91000000" hdg="-0.13502768" length="2.59221192">
                <line/>
            </geometry>
        </planView>
        <elevationProfile>
            <elevation s="0" a="0.00" b="0" c="0" d="0"/>
        </elevationProfile>
        <lateralProfile/>
        <lanes>
            <laneSection s="0">
                <center>
                    <lane id="0" type="none" level="true">
                        <link/>
                        <roadMark sOffset="0" type="solid" weight="standard" color="standard" width="0.13"/>
                    </lane>
                </center>
                <right>
                    <lane id="-1" type="driving" level="true">
                        <link/>
                        <width sOffset="0" a="3.20" b="0" c="0" d="0"/>
                        <roadMark sOffset="0" type="solid" weight="standard" color="standard" width="0.13"/>
                        <speed sOffset="0" max="13.89"/>
                    </lane>
                 </right>
            </laneSection>
        </lanes>
        <objects/>
        <signals/>
    </road>
    <road name="" length="0.28583747" id="2571" junction="-1">
        <link>
            <predecessor elementType="junction" elementId="15"/>
            <successor elementType="junction" elementId="14"/>
        </link>
        <type s="0" type="town"/>
        <planView>
            <geometry s="0.00000000" x="1381.80499015" y="2488.91512766" hdg="-1.82590066" length="0.28583747">
                <line/>
            </geometry>
        </planView>
        <elevationProfile>
            <elevation s="0" a="0.00" b="0" c="0" d="0"/>
        </elevationProfile>
        <lateralProfile/>
        <lanes>
            <laneSection s="0">
                <center>
                    <lane id="0" type="none" level="true">
                        <link/>
                        <roadMark sOffset="0" type="solid" weight="standard" color="standard" width="0.13"/>
                    </lane>
                </center>
                <right>
                    <lane id="-1" type="driving" level="true">
                        <link/>
                        <width sOffset="0" a="3.20" b="0" c="0" d="0"/>
                        <roadMark sOffset="0" type="solid" weight="standard" color="standard" width="0.13"/>
                        <speed sOffset="0" max="13.89"/>
                    </lane>
                 </right>
            </laneSection>
        </lanes>
        <objects/>
        <signals/>
    </road>
    <road name="" length="133.04629873" id="2572" junction="-1">
        <link>
            <predecessor elementType="junction" elementId="16"/>
            <successor elementType="junction" elementId="17"/>
        </link>
        <type s="0" type="town"/>
        <planView>
            <geometry s="0.00000000" x="1539.81619742" y="2590.80083602" hdg="1.36120559" length="133.04629873">
                <line/>
            </geometry>
        </planView>
        <elevationProfile>
            <elevation s="0" a="0.00" b="0" c="0" d="0"/>
        </elevationProfile>
        <lateralProfile/>
        <lanes>
            <laneSection s="0">
                <center>
                    <lane id="0" type="none" level="true">
                        <link/>
                        <roadMark sOffset="0" type="solid" weight="standard" color="standard" width="0.13"/>
                    </lane>
                </center>
                <right>
                    <lane id="-1" type="driving" level="true">
                        <link/>